##TITLE=Alpha Ionone
C13H20O in CDCl3
##JCAMPDX= 6.0         $$ Bruker NMR JCAMP-DX V2.0
##DATA TYPE= NMR FID
##DATA CLASS= NTUPLES
##ORIGIN= Bruker BioSpin GmbH
##OWNER= Administrator
$$ 1.83.2.2 TOPSPIN		Version 3.2
$$ 2016-04-20 14:32:19.568 -0500  darmn@msy
$$ Compression mode = diff/dup
##.OBSERVE FREQUENCY= 400.13186997
##.OBSERVE NUCLEUS= ^1H
##.DELAY= (10, 10)
##.ACQUISITION MODE= SIMULTANEOUS (DQD)
##.ACQUISITION SCHEME= undefined
##.AVERAGES= 1
##.DIGITISER RES= 22
##SPECTROMETER/DATA SYSTEM= spect
##.PULSE SEQUENCE= zg
##.SOLVENT NAME= CDCl3
##.SHIFT REFERENCE= INTERNAL, CDCl3, 1, 14.68618
##AUDIT TRAIL= $$ (NUMBER, WHEN, WHO, WHERE, PROCESS, VERSION, WHAT)
$$ ##TITLE= Audit trail, TOPSPIN		Version 2.1
$$ ##JCAMPDX= 5.01
$$ ##ORIGIN= Bruker BioSpin GmbH
$$ ##OWNER= Administrator
$$ $$ C:/data/strcorr/nmr/ionon/1/audita.txt
$$ ##AUDIT TRAIL=  $$ (NUMBER, WHEN, WHO, WHERE, PROCESS, VERSION, WHAT)
(   1,<2008-01-30 17:41:10.988 +0100>,<Administrator>,<VISTA400>,<go>,<TOPSPIN 2.1>,
      <created by zg
	started at 2008-01-30 17:40:55.575 +0100,
	POWCHK disabled, PULCHK disabled,
       configuration hash MD5:
       C0 52 9C 8F F2 B4 56 0B 93 CA D8 30 BA 6D B5 0F
       data hash MD5: 64K
       1C F0 00 6F 9C 87 2B 2B 50 61 F1 D4 71 CF C6 ED>)
$$ ##END=
$$ 
$$ $$ hash MD5
$$ $$ 42 4D 64 11 AA 81 61 93 7B 4E E6 3E 35 ED DE 34
##$RELAX= 
##$BRUKER FILE EXP=format.temp
$$ EDIT_PAR COMMAND FILE
$$ 
$$ DI_MODE         LONG
$$ ED_ENTRY        ACQU
$$ ORDER           FILE
$$ 
$$ 
$$ HEADER		"F2 - Acquisition Parameters"
$$ T_NAME		Date_
$$ 		TYPE	R64
$$ 		CLASS	ACQU
$$ 		SUBRANGE 0.0 50000000
$$ 		REL	"Date_=itodate(DATE)"
$$ 		INV_REL	"DATE=datetoi(Date_,DATE)"
$$ 		FORMAT	"%14.0f"
$$ 		TEXT	" "
$$ END
$$ T_NAME		Time
$$ 		TYPE	R32
$$ 		CLASS	ACQU
$$ 		SUBRANGE 0.0 1000000
$$ 		REL	"Time=itotime(DATE)"
$$ 		INV_REL	"DATE=timetoi(Time,DATE)"
$$ 		FORMAT	"%14.2f"
$$ 		TEXT	" "
$$ END
$$ NAME		INSTRUM
$$ 		TEXT	" "
$$ END
$$ NAME		PROBHD
$$ 		FORMAT	"%14.14s"
$$ 		TEXT	" "
$$ END
$$ NAME		PULPROG
$$ 		TEXT	" "
$$ END
$$ NAME		TD
$$ 		TEXT	" "
$$ END
$$ NAME		SOLVENT
$$ 		TEXT	" "
$$ END
$$ NAME		NS
$$ 		TEXT	" "
$$ END
$$ NAME		DS
$$ 		TEXT	" "
$$ END
$$ T_NAME		SWH
$$ 		TYPE	R32
$$ 		CLASS	ACQU
$$ 		SUBRANGE 0.0 1e8
$$ 		REL	"SWH=SW*SFO1"
$$ 		INV_REL "SW=SWH/SFO1"
$$ 		UNIT	"Hz"
$$ 		FORMAT	"%14.3f Hz"
$$ 		TEXT	" "
$$ END
$$ T_NAME          FIDRES
$$                 TYPE    R32
$$                 CLASS   ACQU
$$                 SUBRANGE 0.0 100000
$$                 REL     "FIDRES=SW*SFO1/TD"
$$                 INV_REL "TD = nextpow(SW*SFO1/FIDRES)"
$$ 		UNIT	"Hz"
$$ 		FORMAT	"%14.6f Hz"
$$ 		TEXT	" "
$$ END
$$ T_NAME          AQ
$$ 		TYPE	R32
$$ 		CLASS	ACQU
$$ 		SUBRANGE 0.0 1000
$$ 		REL	"AQ=aqcalc(SW,SFO1,TD,DIGTYP)"
$$ 		INV_REL	"TD=tdcalc(SW,SFO1,1.0e6*AQ,DIGTYP)"
$$ 		UNIT	"sec"
$$ 		FORMAT	"%14.7f sec"
$$ 		TEXT	" "
$$ END
$$ NAME		RG
$$ 		TEXT	" "
$$ END
$$ T_NAME          DW
$$ 		TYPE	R32
$$ 		CLASS	ACQU
$$ 		SUBRANGE 0.0 1000000
$$ 		REL	"DW=1/(2*SW*SFO1)"
$$ 		INV_REL	"SW=1000000/(2*(0.005+DW)*SFO1)"
$$ 		UNIT	"usec"
$$ 		FORMAT	"%14.3lf usec"
$$ 		TEXT	" "
$$ END
$$ NAME		DE
$$ 		FORMAT	"%14.2f usec"
$$ 		TEXT	" "
$$ END
$$ NAME		TE
$$ 		FORMAT	"%14.1f K"
$$ 		TEXT	" "
$$ END
$$ T_NAME		D1
$$ 		TYPE	R32
$$ 		CLASS	ACQU
$$ 		SUBRANGE 0.0 1e38
$$ 		REL	"D1=D[1]"
$$ 		INV_REL	"D[1]=D1"
$$ 		UNIT	"sec"
$$ 		FORMAT	"%14.8f sec"
$$ 		TEXT	" "
$$ END
$$ NAME		TD0
$$ 		TEXT	" "
$$ END
$$ HEADER		"======== CHANNEL f1 ========"
$$ NAME		NUC1
$$ 		NONEDIT
$$ 		TEXT	" "
$$ END
$$ T_NAME		P1
$$ 		TYPE	R32
$$ 		CLASS	ACQU
$$ 		SUBRANGE 0.0 1.0e10
$$ 		REL	"P1=P[1]"
$$ 		INV_REL	"P[1]=P1"
$$ 		UNIT	"usec"
$$ 		FORMAT	"%14.2f usec"
$$ 		TEXT	" "
$$ END
$$ T_NAME		PL1
$$ 		TYPE	R32
$$ 		CLASS	ACQU
$$ 		SUBRANGE -6.0 1e38
$$ 		REL	"PL1=PL[1]"
$$ 		INV_REL	"PL[1]=PL1"
$$ 		UNIT	"dB"
$$ 		FORMAT	"%14.2f dB"
$$ 		TEXT	" "
$$ END
$$ T_NAME		PL1W
$$ 		TYPE	R32
$$ 		CLASS	ACQU
$$ 		SUBRANGE -6.0 1e38
$$ 		REL	"PL1W=100*pow(10.0,(-6-PL[1])/10.0)"
$$ 		INV_REL	"PL[1]=-6-4.3425*log(PL1W/100)"
$$ 		UNIT	"no"
$$ 		FORMAT	"%14.8f W"
$$ 		TEXT	" "
$$ END
$$ NAME		SFO1
$$ 		FORMAT	"%14.7f MHz"
$$ 		TEXT	" "
$$ END
##$RELAX= 
##$BRUKER FILE EXP=scon2
$$ ##TITLE= Parameter file, TOPSPIN		Version 2.1
$$ ##JCAMPDX= 5.0
$$ ##DATATYPE= Parameter Values
$$ ##NPOINTS= 6	$$ modification sequence number
$$ ##ORIGIN= Bruker BioSpin GmbH
$$ ##OWNER= Administrator
$$ $$ 2008-01-30 17:40:55.291 +0100  Administrator@VISTA400
$$ $$ C:/data/strcorr/nmr/ionon/1/scon2
$$ $$ process C:\Bruker\TopSpin\prog\mod\go.exe
$$ ##$BLKTR= (0..15)
3 3 3 3 3 3 3 3 3 3 3 3 3 3 3 3
$$ ##$DE1= 4.5
$$ ##$DEADC= 0.5
$$ ##$DEPA= 4.5
$$ ##$DERX= 1.5
$$ ##$FILCOR= 1.5
$$ ##END=
##$RELAX= 
##$BRUKER FILE EXP=pulseprogram
$$ # 1 "C:/Bruker/TopSpin/exp/stan/nmr/lists/pp/zg"
$$ ;zg
$$ ;avance-version (06/11/09)
$$ ;1D sequence
$$ ;
$$ ;$CLASS=HighRes
$$ ;$DIM=1D
$$ ;$TYPE=
$$ ;$SUBTYPE=
$$ ;$COMMENT=
$$ 
$$ 
$$ # 1 "C:/Bruker/TopSpin/exp/stan/nmr/lists/pp/Avance.incl" 1
$$ ;Avance3.incl
$$ ;   for AVi
$$ ;
$$ ;avance-version (07/08/22)
$$ ;
$$ ;$CLASS=HighRes Incl
$$ ;$COMMENT=
$$ 
$$ 
$$ 
$$ 
$$ 
$$ 
$$ 
$$ 
$$ 
$$ 
$$ 
$$ 
$$ 
$$ 
$$ 
$$ 
$$ 
$$ 
$$ 
$$ 
$$ 
$$ 
$$ 
$$ 
$$ 
$$ 
$$ 
$$ 
$$ 
$$ 
$$ 
$$ 
$$ 
$$ 
$$ 
$$ 
$$ 
$$ 
$$ 
$$ 
$$ 
$$ 
$$ 
$$ 
$$ 
$$ 
$$ 
$$ 
$$ 
$$ 
$$ 
$$ 
$$ 
$$ 
$$ 
$$ 
$$ 
$$ 
$$ 
$$ 
$$ 
$$ 
$$ 
$$ 
$$ 
$$ 
$$ 
$$ 
$$ 
$$ 
$$ 
$$ 
$$ 
$$ 
$$ 
$$ 
$$ 
$$ 
$$ 
$$ 
$$ 
$$ 
$$ 
$$ 
$$ 
$$ 
$$ 
$$ 
$$ 
$$ 
$$ 
$$ 
$$ 
$$ 
$$ 
$$ 
$$ 
$$ 
$$ 
$$ 
$$ 
$$ 
$$ 
$$ 
$$ 
$$ 
$$ 
$$ 
$$ 
$$ 
$$ 
$$ 
$$ 
$$ 
$$ 
$$ 
$$ 
$$ 
$$ 
$$ 
$$ 
$$ 
$$ 
$$ 
$$ 
$$ 
$$ 
$$ 
$$ 
$$ 
$$ 
$$ 
$$ 
$$ 
$$ 
$$ 
$$ 
$$ 
$$ 
$$ 
$$ 
$$ 
$$ 
$$ 
$$ 
$$ 
$$ 
$$ 
$$ 
$$ ;$Id: Avance3.incl,v 1.6.2.1 2007/09/14 16:17:35 ber Exp $
$$ # 12 "C:/Bruker/TopSpin/exp/stan/nmr/lists/pp/zg" 2
$$ 
$$ 
$$ 
$$ "acqt0=-p1*2/3.1416"
$$ 
$$ 
$$ # 1 "mc_line 18 file C:/Bruker/TopSpin/exp/stan/nmr/lists/pp/zg expanding definition part of mc command before ze"
$$ define delay MCWRK
$$ define delay MCREST
$$ "MCWRK = 0.333333*30m"
$$ "MCREST = 30m - 30m"
$$     dccorr
$$ # 18 "C:/Bruker/TopSpin/exp/stan/nmr/lists/pp/zg"
$$ 1 ze
$$ # 1 "mc_line 18 file C:/Bruker/TopSpin/exp/stan/nmr/lists/pp/zg expanding definition of mc command after ze"
$$ # 19 "C:/Bruker/TopSpin/exp/stan/nmr/lists/pp/zg"
$$ # 1 "mc_line 19 file C:/Bruker/TopSpin/exp/stan/nmr/lists/pp/zg expanding start label for mc command"
$$ 2 MCWRK  * 2
$$ LBLF0, MCWRK
$$   MCREST
$$ # 20 "C:/Bruker/TopSpin/exp/stan/nmr/lists/pp/zg"
$$   d1
$$   p1 ph1
$$   go=2 ph31
$$ # 1 "mc_line 23 file C:/Bruker/TopSpin/exp/stan/nmr/lists/pp/zg expanding mc command in line"
$$   MCWRK wr #0
$$   MCWRK zd 
$$   lo to LBLF0 times td0
$$ 
$$   MCWRK
$$ # 24 "C:/Bruker/TopSpin/exp/stan/nmr/lists/pp/zg"
$$ exit
$$ 
$$ 
$$ ph1=0 2 2 0 1 3 3 1
$$ ph31=0 2 2 0 1 3 3 1
$$ 
$$ 
$$ ;pl1 : f1 channel - power level for pulse (default)
$$ ;p1 : f1 channel -  high power pulse
$$ ;d1 : relaxation delay; 1-5 * T1
$$ ;NS: 1 * n, total number of scans: NS * TD0
$$ 
$$ 
$$ 
$$ ;$Id: zg,v 1.9 2006/11/10 10:56:44 ber Exp $
##$RELAX= 
##$BRUKER FILE EXP=uxnmr.par
$$ ##TITLE= Parameter file, TOPSPIN		Version 2.1
$$ ##JCAMPDX= 5.0
$$ ##DATATYPE= Parameter Values
$$ ##NPOINTS= 37	$$ modification sequence number
$$ ##ORIGIN= Bruker BioSpin GmbH
$$ ##OWNER= Administrator
$$ $$ 2007-11-21 10:40:53.477 +0100  Administrator@VISTA400
$$ $$ C:/Bruker/TopSpin/conf/instr/spect/uxnmr.par
$$ $$ process C:\Bruker\TopSpin\prog\mod\confamp.exe
$$ ##$ACB= 0
$$ ##$ACBTAT= (0..15)
0 72 88 50 88 0 0 0 0 0 0 0 0 0 0 0
$$ ##$ACBTBA= (0..15)
0 0 0 0 0 0 0 0 0 0 0 0 0 0 0 0
$$ ##$ACBTBLK= (0..15)
0 1 1 0 1 0 0 0 0 0 0 0 0 0 0 0
$$ ##$ACBTCTL= (0..15)
0 6 6 6 6 0 0 0 0 0 0 0 0 0 0 0
$$ ##$ACBTDI= (0..15)
0 -1779670020 -1779670020 -1779670020 -1779670021 0 0 0 0 0 0 0 0 0 0 0
$$ ##$ACBTDM= (0..15)
0 25 10 10 10 0 0 0 0 0 0 0 0 0 0 0
$$ ##$ACBTFHI= (0..15)
0 600 365 92 365 0 0 0 0 0 0 0 0 0 0 0
$$ ##$ACBTFL= (0..15)
0 248 248 88 248 0 0 0 0 0 0 0 0 0 0 0
$$ ##$ACBTFLO= (0..15)
0 180 6 30 6 0 0 0 0 0 0 0 0 0 0 0
$$ ##$ACBTINP= (0..15)
0 2 1 9 3 0 0 0 0 0 0 0 0 0 0 0
$$ ##$ACBTOUT= (0..15)
0 1 2 3 1 0 0 0 0 0 0 0 0 0 0 0
$$ ##$ACBTPO= (0..15)
0 100000 300000 150000 300000 0 0 0 0 0 0 0 0 0 0 0
$$ ##$ACBTPW= (0..15)
0 100 100 5 100 0 0 0 0 0 0 0 0 0 0 0
$$ ##$ACBTSB= (0..15)
0 0 0 0 0 0 0 0 0 0 0 0 0 0 0 0
$$ ##$ACBTY= <no>
$$ ##$AQSBDCH= (0..95)
0 0 0 0 0 0 0 0 0 255 255 255 255 255 255 255 255 255 255 255 255 255 255
255 255 255 255 255 255 255 255 255 255 255 255 255 255 255 255 255 255
255 255 255 255 255 255 255 255 255 255 255 255 255 255 255 255 255 255
255 255 255 255 255 255 255 255 255 255 255 255 255 255 255 255 255 255
255 255 255 255 255 255 255 255 255 255 255 255 255 255 255 255 255 255
255
$$ ##$AQSBDHW= (0..95)
3 1 8 3 8 8 0 0 0 255 255 255 255 255 255 255 255 255 255 255 255 255 255
255 255 255 255 255 255 255 255 255 255 255 255 255 255 255 255 255 255
255 255 255 255 255 255 255 255 255 255 255 255 255 255 255 255 255 255
255 255 255 255 255 255 255 255 255 255 255 255 255 255 255 255 255 255
255 255 255 255 255 255 255 255 255 255 255 255 255 255 255 255 255 255
255
$$ ##$AQSBDID= (0..95)
82 88 83 82 83 83 80 66 66 255 255 255 255 255 255 255 255 255 255 255
255 255 255 255 255 255 255 255 255 255 255 255 255 255 255 255 255 255
255 255 255 255 255 255 255 255 255 255 255 255 255 255 255 255 255 255
255 255 255 255 255 255 255 255 255 255 255 255 255 255 255 255 255 255
255 255 255 255 255 255 255 255 255 255 255 255 255 255 255 255 255 255
255 255 255 255
$$ ##$AQSBDNO= (0..95)
1 1 1 2 2 3 1 1 1 255 255 255 255 255 255 255 255 255 255 255 255 255 255
255 255 255 255 255 255 255 255 255 255 255 255 255 255 255 255 255 255
255 255 255 255 255 255 255 255 255 255 255 255 255 255 255 255 255 255
255 255 255 255 255 255 255 255 255 255 255 255 255 255 255 255 255 255
255 255 255 255 255 255 255 255 255 255 255 255 255 255 255 255 255 255
255
$$ ##$AQSBDSL= (0..95)
2 3 4 6 7 8 21 23 25 255 255 255 255 255 255 255 255 255 255 255 255 255
255 255 255 255 255 255 255 255 255 255 255 255 255 255 255 255 255 255
255 255 255 255 255 255 255 255 255 255 255 255 255 255 255 255 255 255
255 255 255 255 255 255 255 255 255 255 255 255 255 255 255 255 255 255
255 255 255 255 255 255 255 255 255 255 255 255 255 255 255 255 255 255
255 255
$$ ##$AQSBDTY= (0..95)
82 2 41 82 41 41 207 209 7 255 255 255 255 255 255 255 255 255 255 255
255 255 255 255 255 255 255 255 255 255 255 255 255 255 255 255 255 255
255 255 255 255 255 255 255 255 255 255 255 255 255 255 255 255 255 255
255 255 255 255 255 255 255 255 255 255 255 255 255 255 255 255 255 255
255 255 255 255 255 255 255 255 255 255 255 255 255 255 255 255 255 255
255 255 255 255
$$ ##$AQSBUAD= (0..95)
16 52 36 17 37 38 33 32 32 255 255 255 255 255 255 255 255 255 255 255
255 255 255 255 255 255 255 255 255 255 255 255 255 255 255 255 255 255
255 255 255 255 255 255 255 255 255 255 255 255 255 255 255 255 255 255
255 255 255 255 255 255 255 255 255 255 255 255 255 255 255 255 255 255
255 255 255 255 255 255 255 255 255 255 255 255 255 255 255 255 255 255
255 255 255 255
$$ ##$AQSECL= (0..95)
2 3 0 3 1 1 0 0 255 255 255 255 255 255 255 255 255 255 255 255 255 255
255 255 255 255 255 255 255 255 255 255 255 255 255 255 255 255 255 255
255 255 255 255 255 255 255 255 255 255 255 255 255 255 255 255 255 255
255 255 255 255 255 255 255 255 255 255 255 255 255 255 255 255 255 255
255 255 255 255 255 255 255 255 255 255 255 255 255 255 255 255 255 255
255 255
$$ ##$AQSECLS= (0..95)
0 7 0 0 0 0 0 0 255 255 255 255 255 255 255 255 255 255 255 255 255 255
255 255 255 255 255 255 255 255 255 255 255 255 255 255 255 255 255 255
255 255 255 255 255 255 255 255 255 255 255 255 255 255 255 255 255 255
255 255 255 255 255 255 255 255 255 255 255 255 255 255 255 255 255 255
255 255 255 255 255 255 255 255 255 255 255 255 255 255 255 255 255 255
255 255
$$ ##$AQSSPLT= yes
$$ ##$ATT19F= (0..1)
0 0
$$ ##$ATT1H= (0..1)
0 0
$$ ##$ATT3H= (0..1)
0 0
$$ ##$ATTX= (0..1)
0 0
$$ ##$ATTY= (0..1)
0 0
$$ ##$ATTZ= (0..1)
0 0
$$ ##$BACSAIR= yes
$$ ##$BACSCAP= 60
$$ ##$BACSDEL= 10
$$ ##$BACSFCM= no
$$ ##$BACSOPT= <>
$$ ##$BACSTY= <tty05>
$$ ##$BARPTY= <no>
$$ ##$BFREQ= 400.13
$$ ##$BGAETH1= <no>
$$ ##$BGAETH2= <no>
$$ ##$BGAETH3= <no>
$$ ##$BGAETH4= <no>
$$ ##$BGAETH5= <no>
$$ ##$BGAETH6= <no>
$$ ##$BGAETH7= <no>
$$ ##$BGAETH8= <no>
$$ ##$BIRDS= yes
$$ ##$BMPC= 0
$$ ##$BMPCTY= <no>
$$ ##$BPSUTY= <no>
$$ ##$BSMS= 2
$$ ##$BSMSETH= <149.236.99.20>
$$ ##$BSMSTY= <no>
$$ ##$CFASMOD= (0..7)
1 1 1 1 1 1 1 1
$$ ##$CFASMUL= (0..7)
1 1 1 1 1 1 1 1
$$ ##$CNFTXDR= (0..7)
6 6 6 0 0 0 0 0
$$ ##$COMDIG2= 0
$$ ##$CPDBTY= <no>
$$ ##$CRCOTY= <no>
$$ ##$CSW1= (0..31)
2 2 0 9 3 0 0 0 0 0 0 0 0 0 0 0 0 0 0 0 0 0 0 0 0 0 0 0 0 0 0 0
$$ ##$CSW2= (0..31)
1 1 0 0 0 0 0 0 0 0 0 0 0 0 0 0 0 0 0 0 0 0 0 0 0 0 0 0 0 0 0 0
$$ ##$CSWNUM= (0..7)
4 3 0 0 0 0 0 0
$$ ##$DATSTAT= no
$$ ##$DIGI140= (0..7)
0 0 0 0 0 0 0 0
$$ ##$DIGIB12= (0..7)
0 0 0 0 0 0 0 0
$$ ##$DIGIB16= (0..7)
0 0 0 0 0 0 0 0
$$ ##$DIGIFA= (0..7)
0 0 0 0 0 0 0 0
$$ ##$DIGIHA= (0..7)
0 0 0 0 0 0 0 0
$$ ##$DIGIHAF= (0..7)
0 0 0 0 0 0 0 0
$$ ##$DIGIHRD= (0..7)
0 0 0 0 0 0 0 0
$$ ##$DIGIIA= (0..7)
0 0 0 0 0 0 0 0
$$ ##$DIGIO16= (0..7)
0 0 0 0 0 0 0 0
$$ ##$DIGISA= (0..7)
0 0 0 0 0 0 0 0
$$ ##$DIGISAF= (0..7)
0 0 0 0 0 0 0 0
$$ ##$DIGISL= (0..7)
0 0 0 0 0 0 0 0
$$ ##$DIGITYI= (0..7)
0 0 0 0 0 0 0 0
$$ ##$DIGITYP= (0..7)
0 0 0 0 0 0 0 0
$$ ##$DIGITZ= 0
$$ ##$DRU= yes
$$ ##$DRUETH01= <149.236.99.89>
$$ ##$DRUETH02= <149.236.99.88>
$$ ##$DRUETH03= <no>
$$ ##$DRUETH04= <no>
$$ ##$DRUETH05= <no>
$$ ##$DRUETH06= <no>
$$ ##$DRUETH07= <no>
$$ ##$DRUETH08= <no>
$$ ##$DRUETH09= <no>
$$ ##$DRUETH10= <no>
$$ ##$DRUETH11= <no>
$$ ##$DRUETH12= <no>
$$ ##$DRUETH13= <no>
$$ ##$DRUETH14= <no>
$$ ##$DRUETH15= <no>
$$ ##$DRUETH16= <no>
$$ ##$DRUETH17= <no>
$$ ##$DRUETH18= <no>
$$ ##$DRUETH19= <no>
$$ ##$DRUETH20= <no>
$$ ##$DRUETH21= <no>
$$ ##$DRUETH22= <no>
$$ ##$DRUETH23= <no>
$$ ##$DRUETH24= <no>
$$ ##$DRUETH25= <no>
$$ ##$DRUETH26= <no>
$$ ##$DRUETH27= <no>
$$ ##$DRUETH28= <no>
$$ ##$DRUETH29= <no>
$$ ##$DRUETH30= <no>
$$ ##$DRUETH31= <no>
$$ ##$DRUETH32= <no>
$$ ##$FCUMEM= (0..7)
16777208 16777208 16777208 0 0 0 0 0
$$ ##$FCUPAL= (0..7)
0 0 0 0 0 0 0 0
$$ ##$FGSVTY= <no>
$$ ##$FQMIX= 0
$$ ##$FUNCMOD= <>
$$ ##$GCUTYPE= 10
$$ ##$GPREDEL= 0
$$ ##$GPSCUTY= <no>
$$ ##$GRADRES= 5
$$ ##$GTUTY= <no>
$$ ##$HFAC= 3
$$ ##$HPCU= 0
$$ ##$HPCUTY= <no>
$$ ##$HPTXLP= (0..3)
-1 -1 -1 -1
$$ ##$HPTXPI= (0..3)
0 0 0 0
$$ ##$HPTXPO= (0..3)
0 0 0 0
$$ ##$HPTXTY= (0..3)
0 0 0 0
$$ ##$IF451= 0
$$ ##$IFREQ= 1
$$ ##$INTFPR= 0
$$ ##$IPSOETH= <149.236.99.254>
$$ ##$LOCKTY= <no>
$$ ##$LOCSWID= 0
$$ ##$LOCSWIF= 0
$$ ##$M2FAC= 0
$$ ##$MAS= 0
$$ ##$MASETIME= 10
$$ ##$MASITIME= 10
$$ ##$MASTY= <tty04>
$$ ##$MAS_CT= 0
$$ ##$MAS_SG= 0
$$ ##$MAS_TO= 0
$$ ##$MEMPRM= 0
$$ ##$MHFAC= 0
$$ ##$MXFAC= 0
$$ ##$NAMPD1= <1H/2H 1H>
$$ ##$NAMPD10= <>
$$ ##$NAMPD11= <>
$$ ##$NAMPD12= <>
$$ ##$NAMPD13= <>
$$ ##$NAMPD14= <>
$$ ##$NAMPD15= <>
$$ ##$NAMPD16= <>
$$ ##$NAMPD2= <1H/2H 2H>
$$ ##$NAMPD3= <19F>
$$ ##$NAMPD4= <XBB19F 2HS>
$$ ##$NAMPD5= <XBB19F 2HS>
$$ ##$NAMPD6= <>
$$ ##$NAMPD7= <>
$$ ##$NAMPD8= <>
$$ ##$NAMPD9= <>
$$ ##$NFCU= 3
$$ ##$NMRCH= 2
$$ ##$NMRMEM= 16384
$$ ##$NRCU= 2
$$ ##$NROUT= 0
$$ ##$NSGU= 3
$$ ##$PAMPF1= (0..15)
75 24 96 40 64 64 0 0 0 0 0 0 0 0 0 0
$$ ##$PAMPF2= (0..15)
0 0 0 0 0 0 0 0 0 0 0 0 0 0 0 0
$$ ##$PAMPF3= (0..15)
0 0 0 0 0 0 0 0 0 0 0 0 0 0 0 0
$$ ##$PAMPF4= (0..15)
0 0 0 0 0 0 0 0 0 0 0 0 0 0 0 0
$$ ##$PAMPF5= (0..15)
0 0 0 0 0 0 0 0 0 0 0 0 0 0 0 0
$$ ##$PAMPF6= (0..15)
0 0 0 0 0 0 0 0 0 0 0 0 0 0 0 0
$$ ##$PAMPF7= (0..15)
0 0 0 0 0 0 0 0 0 0 0 0 0 0 0 0
$$ ##$PAMPF8= (0..15)
0 0 0 0 0 0 0 0 0 0 0 0 0 0 0 0
$$ ##$PH4= 0
$$ ##$PHF4TY= <no>
$$ ##$POWCHK= no
$$ ##$PRAMD1= (0..7)
2 0 0 536870912 0 0 0 0
$$ ##$PRAMD10= (0..7)
0 0 0 0 0 0 0 0
$$ ##$PRAMD11= (0..7)
0 0 0 0 0 0 0 0
$$ ##$PRAMD12= (0..7)
0 0 0 0 0 0 0 0
$$ ##$PRAMD13= (0..7)
0 0 0 0 0 0 0 0
$$ ##$PRAMD14= (0..7)
0 0 0 0 0 0 0 0
$$ ##$PRAMD15= (0..7)
0 0 0 0 0 0 0 0
$$ ##$PRAMD16= (0..7)
0 0 0 0 0 0 0 0
$$ ##$PRAMD17= (0..7)
0 0 0 0 0 0 0 0
$$ ##$PRAMD18= (0..7)
0 0 0 0 0 0 0 0
$$ ##$PRAMD19= (0..7)
0 0 0 0 0 0 0 0
$$ ##$PRAMD2= (0..7)
0 1048576 0 536870912 0 1048576 0 536870912
$$ ##$PRAMD20= (0..7)
0 0 0 0 0 0 0 0
$$ ##$PRAMD21= (0..7)
0 0 0 0 0 0 0 0
$$ ##$PRAMD3= (0..7)
4 0 0 0 4 0 0 0
$$ ##$PRAMD4= (0..7)
2147483644 2131230719 2147483647 134217727 0 0 0 0
$$ ##$PRAMD5= (0..7)
2147483644 2131230719 2147483647 134217727 0 0 0 0
$$ ##$PRAMD6= (0..7)
0 0 0 0 0 0 0 0
$$ ##$PRAMD7= (0..7)
0 0 0 0 0 0 0 0
$$ ##$PRAMD8= (0..7)
0 0 0 0 0 0 0 0
$$ ##$PRAMD9= (0..7)
0 0 0 0 0 0 0 0
$$ ##$PRAMLED= (0..1)
15 15
$$ ##$PRAMP1= <tty10>
$$ ##$PRAMP2= <no>
$$ ##$PRAMP3= <no>
$$ ##$PRAMP4= <no>
$$ ##$PRAMP5= <no>
$$ ##$PRAMP6= <no>
$$ ##$PRAMP7= <no>
$$ ##$PRAMP8= <no>
$$ ##$PRAMPTP= 1
$$ ##$PREPTY= <no>
$$ ##$PRESHLD= 0
$$ ##$PTS160= -1
$$ ##$PTSA2X= (0..7)
0 0 0 0 0 0 0 0
$$ ##$PTSF2X= (0..7)
0 0 0 0 0 0 0 0
$$ ##$PTSFMX= (0..7)
1072.525 1072.525 1072.525 0 0 0 0 0
$$ ##$PULCHK= no
$$ ##$RCUCDS= (0..7)
0 0 0 0 0 0 0 0
$$ ##$RCUCFS= (0..7)
0 0 0 0 0 0 0 0
$$ ##$RCUCSS= (0..7)
0 0 0 0 0 0 0 0
$$ ##$RCUI2C1= (0..7)
0 0 0 0 0 0 0 0
$$ ##$RCUI2C2= (0..7)
0 0 0 0 0 0 0 0
$$ ##$RCUI2C3= (0..7)
0 0 0 0 0 0 0 0
$$ ##$RCUI2C4= (0..7)
0 0 0 0 0 0 0 0
$$ ##$RCUI2C5= (0..7)
0 0 0 0 0 0 0 0
$$ ##$RCUI2C6= (0..7)
0 0 0 0 0 0 0 0
$$ ##$RCUI2C7= (0..7)
0 0 0 0 0 0 0 0
$$ ##$RCUI2C8= (0..7)
0 0 0 0 0 0 0 0
$$ ##$RDCU= 0
$$ ##$RFSVTY= <no>
$$ ##$RGTYPE= (0..31)
9 9 0 0 0 0 0 0 0 0 0 0 0 0 0 0 0 0 0 0 0 0 0 0 0 0 0 0 0 0 0 0
$$ ##$RG_max= (0..31)
203 2050 0 0 0 0 0 0 0 0 0 0 0 0 0 0 0 0 0 0 0 0 0 0 0 0 0 0 0 0 0 0
$$ ##$RG_min= (0..31)
0.25 0.25 0 0 0 0 0 0 0 0 0 0 0 0 0 0 0 0 0 0 0 0 0 0 0 0 0 0 0 0 0 0
$$ ##$RG_tab1= (0..255)
0.25 0.28 0.32 0.35 0.4 0.44 0.5 0.56 0.64 0.7 0.8 0.89 1 1.12 1.28 1.4
1.6 1.78 2 2.25 2.56 2.8 3.2 3.56 4 4.5 5 5.6 6.35 7.12 8 9 10 11.3 12.7
14.2 16 18 20.2 22.6 25.4 28.5 32 36 40.3 45.2 50.8 57 64 71.8 80.6 90.5
101 114 128 144 161 181 203 -1 -1 -1 -1 -1 -1 -1 -1 -1 -1 -1 -1 -1 -1 -1
-1 -1 -1 -1 -1 -1 -1 -1 -1 -1 -1 -1 -1 -1 -1 -1 -1 -1 -1 -1 -1 -1 -1 -1
-1 -1 -1 -1 -1 -1 -1 -1 -1 -1 -1 -1 -1 -1 -1 -1 -1 -1 -1 -1 -1 -1 -1 -1
-1 -1 -1 -1 -1 -1 -1 -1 -1 -1 -1 -1 -1 -1 -1 -1 -1 -1 -1 -1 -1 -1 -1 -1
-1 -1 -1 -1 -1 -1 -1 -1 -1 -1 -1 -1 -1 -1 -1 -1 -1 -1 -1 -1 -1 -1 -1 -1
-1 -1 -1 -1 -1 -1 -1 -1 -1 -1 -1 -1 -1 -1 -1 -1 -1 -1 -1 -1 -1 -1 -1 -1
-1 -1 -1 -1 -1 -1 -1 -1 -1 -1 -1 -1 -1 -1 -1 -1 -1 -1 -1 -1 -1 -1 -1 -1
-1 -1 -1 -1 -1 -1 -1 -1 -1 -1 -1 -1 -1 -1 -1 -1 -1 -1 -1 -1 -1 -1 -1 -1
-1 -1 -1 -1 -1 -1 -1 -1 -1 -1 -1 -1 -1 -1
$$ ##$RG_tab2= (0..255)
0.25 0.28 0.32 0.35 0.4 0.44 0.5 0.56 0.64 0.7 0.8 0.89 1 1.12 1.28 1.4
1.6 1.78 2 2.25 2.56 2.8 3.2 3.56 4 4.5 5 5.6 6.35 7.12 8 9 10 11.3 12.7
14.2 16 18 20.2 22.6 25.4 28.5 32 36 40.3 45.2 50.8 57 64 71.8 80.6 90.5
101 114 128 144 161 181 203 228 256 287 322 362 406 456 512 575 645 724
812 912 1030 1150 1290 1440 1620 1820 2050 -1 -1 -1 -1 -1 -1 -1 -1 -1 -1
-1 -1 -1 -1 -1 -1 -1 -1 -1 -1 -1 -1 -1 -1 -1 -1 -1 -1 -1 -1 -1 -1 -1 -1
-1 -1 -1 -1 -1 -1 -1 -1 -1 -1 -1 -1 -1 -1 -1 -1 -1 -1 -1 -1 -1 -1 -1 -1
-1 -1 -1 -1 -1 -1 -1 -1 -1 -1 -1 -1 -1 -1 -1 -1 -1 -1 -1 -1 -1 -1 -1 -1
-1 -1 -1 -1 -1 -1 -1 -1 -1 -1 -1 -1 -1 -1 -1 -1 -1 -1 -1 -1 -1 -1 -1 -1
-1 -1 -1 -1 -1 -1 -1 -1 -1 -1 -1 -1 -1 -1 -1 -1 -1 -1 -1 -1 -1 -1 -1 -1
-1 -1 -1 -1 -1 -1 -1 -1 -1 -1 -1 -1 -1 -1 -1 -1 -1 -1 -1 -1 -1 -1 -1 -1
-1 -1 -1 -1 -1 -1 -1 -1 -1 -1 -1 -1 -1 -1 -1 -1 -1 -1 -1 -1 -1 -1 -1
$$ ##$RG_tab3= (0..255)
-1 -1 -1 -1 -1 -1 -1 -1 -1 -1 -1 -1 -1 -1 -1 -1 -1 -1 -1 -1 -1 -1 -1 -1
-1 -1 -1 -1 -1 -1 -1 -1 -1 -1 -1 -1 -1 -1 -1 -1 -1 -1 -1 -1 -1 -1 -1 -1
-1 -1 -1 -1 -1 -1 -1 -1 -1 -1 -1 -1 -1 -1 -1 -1 -1 -1 -1 -1 -1 -1 -1 -1
-1 -1 -1 -1 -1 -1 -1 -1 -1 -1 -1 -1 -1 -1 -1 -1 -1 -1 -1 -1 -1 -1 -1 -1
-1 -1 -1 -1 -1 -1 -1 -1 -1 -1 -1 -1 -1 -1 -1 -1 -1 -1 -1 -1 -1 -1 -1 -1
-1 -1 -1 -1 -1 -1 -1 -1 -1 -1 -1 -1 -1 -1 -1 -1 -1 -1 -1 -1 -1 -1 -1 -1
-1 -1 -1 -1 -1 -1 -1 -1 -1 -1 -1 -1 -1 -1 -1 -1 -1 -1 -1 -1 -1 -1 -1 -1
-1 -1 -1 -1 -1 -1 -1 -1 -1 -1 -1 -1 -1 -1 -1 -1 -1 -1 -1 -1 -1 -1 -1 -1
-1 -1 -1 -1 -1 -1 -1 -1 -1 -1 -1 -1 -1 -1 -1 -1 -1 -1 -1 -1 -1 -1 -1 -1
-1 -1 -1 -1 -1 -1 -1 -1 -1 -1 -1 -1 -1 -1 -1 -1 -1 -1 -1 -1 -1 -1 -1 -1
-1 -1 -1 -1 -1 -1 -1 -1 -1 -1 -1 -1 -1 -1 -1 -1
$$ ##$RG_tab4= (0..255)
-1 -1 -1 -1 -1 -1 -1 -1 -1 -1 -1 -1 -1 -1 -1 -1 -1 -1 -1 -1 -1 -1 -1 -1
-1 -1 -1 -1 -1 -1 -1 -1 -1 -1 -1 -1 -1 -1 -1 -1 -1 -1 -1 -1 -1 -1 -1 -1
-1 -1 -1 -1 -1 -1 -1 -1 -1 -1 -1 -1 -1 -1 -1 -1 -1 -1 -1 -1 -1 -1 -1 -1
-1 -1 -1 -1 -1 -1 -1 -1 -1 -1 -1 -1 -1 -1 -1 -1 -1 -1 -1 -1 -1 -1 -1 -1
-1 -1 -1 -1 -1 -1 -1 -1 -1 -1 -1 -1 -1 -1 -1 -1 -1 -1 -1 -1 -1 -1 -1 -1
-1 -1 -1 -1 -1 -1 -1 -1 -1 -1 -1 -1 -1 -1 -1 -1 -1 -1 -1 -1 -1 -1 -1 -1
-1 -1 -1 -1 -1 -1 -1 -1 -1 -1 -1 -1 -1 -1 -1 -1 -1 -1 -1 -1 -1 -1 -1 -1
-1 -1 -1 -1 -1 -1 -1 -1 -1 -1 -1 -1 -1 -1 -1 -1 -1 -1 -1 -1 -1 -1 -1 -1
-1 -1 -1 -1 -1 -1 -1 -1 -1 -1 -1 -1 -1 -1 -1 -1 -1 -1 -1 -1 -1 -1 -1 -1
-1 -1 -1 -1 -1 -1 -1 -1 -1 -1 -1 -1 -1 -1 -1 -1 -1 -1 -1 -1 -1 -1 -1 -1
-1 -1 -1 -1 -1 -1 -1 -1 -1 -1 -1 -1 -1 -1 -1 -1
$$ ##$RG_tab5= (0..255)
-1 -1 -1 -1 -1 -1 -1 -1 -1 -1 -1 -1 -1 -1 -1 -1 -1 -1 -1 -1 -1 -1 -1 -1
-1 -1 -1 -1 -1 -1 -1 -1 -1 -1 -1 -1 -1 -1 -1 -1 -1 -1 -1 -1 -1 -1 -1 -1
-1 -1 -1 -1 -1 -1 -1 -1 -1 -1 -1 -1 -1 -1 -1 -1 -1 -1 -1 -1 -1 -1 -1 -1
-1 -1 -1 -1 -1 -1 -1 -1 -1 -1 -1 -1 -1 -1 -1 -1 -1 -1 -1 -1 -1 -1 -1 -1
-1 -1 -1 -1 -1 -1 -1 -1 -1 -1 -1 -1 -1 -1 -1 -1 -1 -1 -1 -1 -1 -1 -1 -1
-1 -1 -1 -1 -1 -1 -1 -1 -1 -1 -1 -1 -1 -1 -1 -1 -1 -1 -1 -1 -1 -1 -1 -1
-1 -1 -1 -1 -1 -1 -1 -1 -1 -1 -1 -1 -1 -1 -1 -1 -1 -1 -1 -1 -1 -1 -1 -1
-1 -1 -1 -1 -1 -1 -1 -1 -1 -1 -1 -1 -1 -1 -1 -1 -1 -1 -1 -1 -1 -1 -1 -1
-1 -1 -1 -1 -1 -1 -1 -1 -1 -1 -1 -1 -1 -1 -1 -1 -1 -1 -1 -1 -1 -1 -1 -1
-1 -1 -1 -1 -1 -1 -1 -1 -1 -1 -1 -1 -1 -1 -1 -1 -1 -1 -1 -1 -1 -1 -1 -1
-1 -1 -1 -1 -1 -1 -1 -1 -1 -1 -1 -1 -1 -1 -1 -1
$$ ##$RG_tab6= (0..255)
-1 -1 -1 -1 -1 -1 -1 -1 -1 -1 -1 -1 -1 -1 -1 -1 -1 -1 -1 -1 -1 -1 -1 -1
-1 -1 -1 -1 -1 -1 -1 -1 -1 -1 -1 -1 -1 -1 -1 -1 -1 -1 -1 -1 -1 -1 -1 -1
-1 -1 -1 -1 -1 -1 -1 -1 -1 -1 -1 -1 -1 -1 -1 -1 -1 -1 -1 -1 -1 -1 -1 -1
-1 -1 -1 -1 -1 -1 -1 -1 -1 -1 -1 -1 -1 -1 -1 -1 -1 -1 -1 -1 -1 -1 -1 -1
-1 -1 -1 -1 -1 -1 -1 -1 -1 -1 -1 -1 -1 -1 -1 -1 -1 -1 -1 -1 -1 -1 -1 -1
-1 -1 -1 -1 -1 -1 -1 -1 -1 -1 -1 -1 -1 -1 -1 -1 -1 -1 -1 -1 -1 -1 -1 -1
-1 -1 -1 -1 -1 -1 -1 -1 -1 -1 -1 -1 -1 -1 -1 -1 -1 -1 -1 -1 -1 -1 -1 -1
-1 -1 -1 -1 -1 -1 -1 -1 -1 -1 -1 -1 -1 -1 -1 -1 -1 -1 -1 -1 -1 -1 -1 -1
-1 -1 -1 -1 -1 -1 -1 -1 -1 -1 -1 -1 -1 -1 -1 -1 -1 -1 -1 -1 -1 -1 -1 -1
-1 -1 -1 -1 -1 -1 -1 -1 -1 -1 -1 -1 -1 -1 -1 -1 -1 -1 -1 -1 -1 -1 -1 -1
-1 -1 -1 -1 -1 -1 -1 -1 -1 -1 -1 -1 -1 -1 -1 -1
$$ ##$RG_tab7= (0..255)
-1 -1 -1 -1 -1 -1 -1 -1 -1 -1 -1 -1 -1 -1 -1 -1 -1 -1 -1 -1 -1 -1 -1 -1
-1 -1 -1 -1 -1 -1 -1 -1 -1 -1 -1 -1 -1 -1 -1 -1 -1 -1 -1 -1 -1 -1 -1 -1
-1 -1 -1 -1 -1 -1 -1 -1 -1 -1 -1 -1 -1 -1 -1 -1 -1 -1 -1 -1 -1 -1 -1 -1
-1 -1 -1 -1 -1 -1 -1 -1 -1 -1 -1 -1 -1 -1 -1 -1 -1 -1 -1 -1 -1 -1 -1 -1
-1 -1 -1 -1 -1 -1 -1 -1 -1 -1 -1 -1 -1 -1 -1 -1 -1 -1 -1 -1 -1 -1 -1 -1
-1 -1 -1 -1 -1 -1 -1 -1 -1 -1 -1 -1 -1 -1 -1 -1 -1 -1 -1 -1 -1 -1 -1 -1
-1 -1 -1 -1 -1 -1 -1 -1 -1 -1 -1 -1 -1 -1 -1 -1 -1 -1 -1 -1 -1 -1 -1 -1
-1 -1 -1 -1 -1 -1 -1 -1 -1 -1 -1 -1 -1 -1 -1 -1 -1 -1 -1 -1 -1 -1 -1 -1
-1 -1 -1 -1 -1 -1 -1 -1 -1 -1 -1 -1 -1 -1 -1 -1 -1 -1 -1 -1 -1 -1 -1 -1
-1 -1 -1 -1 -1 -1 -1 -1 -1 -1 -1 -1 -1 -1 -1 -1 -1 -1 -1 -1 -1 -1 -1 -1
-1 -1 -1 -1 -1 -1 -1 -1 -1 -1 -1 -1 -1 -1 -1 -1
$$ ##$RG_tab8= (0..255)
-1 -1 -1 -1 -1 -1 -1 -1 -1 -1 -1 -1 -1 -1 -1 -1 -1 -1 -1 -1 -1 -1 -1 -1
-1 -1 -1 -1 -1 -1 -1 -1 -1 -1 -1 -1 -1 -1 -1 -1 -1 -1 -1 -1 -1 -1 -1 -1
-1 -1 -1 -1 -1 -1 -1 -1 -1 -1 -1 -1 -1 -1 -1 -1 -1 -1 -1 -1 -1 -1 -1 -1
-1 -1 -1 -1 -1 -1 -1 -1 -1 -1 -1 -1 -1 -1 -1 -1 -1 -1 -1 -1 -1 -1 -1 -1
-1 -1 -1 -1 -1 -1 -1 -1 -1 -1 -1 -1 -1 -1 -1 -1 -1 -1 -1 -1 -1 -1 -1 -1
-1 -1 -1 -1 -1 -1 -1 -1 -1 -1 -1 -1 -1 -1 -1 -1 -1 -1 -1 -1 -1 -1 -1 -1
-1 -1 -1 -1 -1 -1 -1 -1 -1 -1 -1 -1 -1 -1 -1 -1 -1 -1 -1 -1 -1 -1 -1 -1
-1 -1 -1 -1 -1 -1 -1 -1 -1 -1 -1 -1 -1 -1 -1 -1 -1 -1 -1 -1 -1 -1 -1 -1
-1 -1 -1 -1 -1 -1 -1 -1 -1 -1 -1 -1 -1 -1 -1 -1 -1 -1 -1 -1 -1 -1 -1 -1
-1 -1 -1 -1 -1 -1 -1 -1 -1 -1 -1 -1 -1 -1 -1 -1 -1 -1 -1 -1 -1 -1 -1 -1
-1 -1 -1 -1 -1 -1 -1 -1 -1 -1 -1 -1 -1 -1 -1 -1
$$ ##$RG_tabA= (0..255)
0.25 0.28 0.32 0.35 0.4 0.44 0.5 0.56 0.64 0.7 0.8 0.89 1 1.12 1.28 1.4
1.6 1.78 2 2.25 2.56 2.8 3.2 3.56 4 4.5 5 5.6 6.35 7.12 8 9 10 11.3 12.7
14.2 16 18 20.2 22.6 25.4 28.5 32 36 40.3 45.2 50.8 57 64 71.8 80.6 90.5
101 114 128 144 161 181 203 -1 -1 -1 -1 -1 -1 -1 -1 -1 -1 -1 -1 -1 -1 -1
-1 -1 -1 -1 -1 -1 -1 -1 -1 -1 -1 -1 -1 -1 -1 -1 -1 -1 -1 -1 -1 -1 -1 -1
-1 -1 -1 -1 -1 -1 -1 -1 -1 -1 -1 -1 -1 -1 -1 -1 -1 -1 -1 -1 -1 -1 -1 -1
-1 -1 -1 -1 -1 -1 -1 -1 -1 -1 -1 -1 -1 -1 -1 -1 -1 -1 -1 -1 -1 -1 -1 -1
-1 -1 -1 -1 -1 -1 -1 -1 -1 -1 -1 -1 -1 -1 -1 -1 -1 -1 -1 -1 -1 -1 -1 -1
-1 -1 -1 -1 -1 -1 -1 -1 -1 -1 -1 -1 -1 -1 -1 -1 -1 -1 -1 -1 -1 -1 -1 -1
-1 -1 -1 -1 -1 -1 -1 -1 -1 -1 -1 -1 -1 -1 -1 -1 -1 -1 -1 -1 -1 -1 -1 -1
-1 -1 -1 -1 -1 -1 -1 -1 -1 -1 -1 -1 -1 -1 -1 -1 -1 -1 -1 -1 -1 -1 -1 -1
-1 -1 -1 -1 -1 -1 -1 -1 -1 -1 -1 -1 -1 -1
$$ ##$ROUT14= (0..7)
0 0 0 0 0 0 0 0
$$ ##$ROUTER= -1
$$ ##$RX22TY= <no>
$$ ##$RXFMAX= (0..7)
1072 1072.5 -1 -1 -1 -1 -1 -1
$$ ##$RXFMIN= (0..7)
5 5 -1 -1 -1 -1 -1 -1
$$ ##$RXINTLV= (0..7)
1 1 0 0 0 0 0 0
$$ ##$RXMSTY= <no>
$$ ##$SCMTY= <no>
$$ ##$SGUC1= (0..15)
17 18 33 0 0 0 0 0 0 0 0 0 0 0 0 0
$$ ##$SGUC2= (0..15)
256 256 20 0 0 0 0 0 0 0 0 0 0 0 0 0
$$ ##$SPECTR= 10
$$ ##$SY2FLAG= 0
$$ ##$TFXNUM= 0
$$ ##$TRIPLO2= 0
$$ ##$VTUTY= <tty01>
$$ ##$WBREFAM= (0..15)
231.8 103.5 100 100 100 100 100 100 100 100 100 100 100 100 100 100
$$ ##$WBREFPH= (0..15)
95.24 -70.52 0 0 0 0 0 0 0 0 0 0 0 0 0 0
$$ ##$XFAC= 2
$$ ##END=
##$RELAX= 
$$ Bruker specific parameters
$$ --------------------------
##$DATPATH= </opt/topspin3.2/examdata>
##$EXPNO= 1
##$NAME= <exam_CMCse_1>
##$PROCNO= 1
##$ACQT0= -5.66590248187565
##$AMP= (0..31)
100 100 100 100 100 100 100 100 100 100 100 100 100 100 100 100 100 100
100 100 100 100 100 100 100 100 100 100 100 100 100 100
##$AMPCOIL= (0..19)
0 0 0 0 0 0 0 0 0 0 0 0 0 0 0 0 0 0 0 0
##$ANAVPT= -1
##$AQSEQ= 0
##$AQ_mod= 3
##$AUNM= <au_zg>
##$AUTOPOS= <>
##$BF1= 400.13
##$BF2= 100.612769
##$BF3= 400.13
##$BF4= 400.13
##$BF5= 500.13
##$BF6= 500.13
##$BF7= 500.13
##$BF8= 500.13
##$BYTORDA= 0
##$CAGPARS= (0..11)
0 0 0 0 0 0 0 0 0 0 0 0
##$CFDGTYP= 0
##$CFRGTYP= 9
##$CHEMSTR= <none>
##$CNST= (0..63)
1 1 145 1 1 1 1 1 1 1 1 1 1 1 1 1 1 1 1 1 1 1 1 1 1 1 1 1 1 1 1 1 1 1 1
1 1 1 1 1 1 1 1 1 1 1 1 1 1 1 1 1 1 1 1 1 1 1 1 1 1 1 1 1
##$CPDPRG= (0..8)
<> <> <> <> <mlev> <mlev> <mlev> <mlev> <mlev>
##$D= (0..63)
0 1 0 0 0 0 0 0 0 0 0 0 0 0 0 0 0.0002 0 0 0 0 0 0 0 0 0 0 0 0 0 0 0 0
0 0 0 0 0 0 0 0 0 0 0 0 0 0 0 0 0 0 0 0 0 0 0 0 0 0 0 0 0 0 0
##$DATE= 1201711270
##$DE= 10
##$DECBNUC= <off>
##$DECIM= 2496
##$DECNUC= <off>
##$DECSTAT= 4
##$DIGMOD= 1
##$DIGTYP= 12
##$DQDMODE= 0
##$DR= 22
##$DS= 0
##$DSPFIRM= 0
##$DSPFVS= 20
##$DTYPA= 0
##$EXP= <>
##$F1LIST= <111111111111111>
##$F2LIST= <222222222222222>
##$F3LIST= <333333333333333>
##$FCUCHAN= (0..9)
0 2 1 0 0 0 0 0 0 0
##$FL1= 90
##$FL2= 90
##$FL3= 90
##$FL4= 90
##$FOV= 20
##$FQ1LIST= <freqlist>
##$FQ2LIST= <freqlist>
##$FQ3LIST= <freqlist>
##$FQ4LIST= <freqlist>
##$FQ5LIST= <freqlist>
##$FQ6LIST= <freqlist>
##$FQ7LIST= <freqlist>
##$FQ8LIST= <freqlist>
##$FRQLO3= 1245083.15499997
##$FRQLO3N= 0
##$FS= (0..7)
83 83 83 83 83 83 83 83
##$FTLPGN= 0
##$FW= 125000
##$FnMODE= 0
##$FnTYPE= 0
##$GPNAM= (0..31)
<sine.100> <sine.100> <sine.100> <sine.100> <sine.100> <sine.100> <sine.100>
<sine.100> <sine.100> <sine.100> <sine.100> <sine.100> <sine.100> <sine.100>
<sine.100> <sine.100> <sine.100> <sine.100> <sine.100> <sine.100> <sine.100>
<sine.100> <sine.100> <sine.100> <sine.100> <sine.100> <sine.100> <sine.100>
<sine.100> <sine.100> <sine.100> <sine.100>
##$GPX= (0..31)
0 0 0 0 0 0 0 0 0 0 0 0 0 0 0 0 0 0 0 0 0 0 0 0 0 0 0 0 0 0 0 0
##$GPY= (0..31)
0 0 0 0 0 0 0 0 0 0 0 0 0 0 0 0 0 0 0 0 0 0 0 0 0 0 0 0 0 0 0 0
##$GPZ= (0..31)
0 0 0 0 0 0 0 0 0 0 0 0 0 0 0 0 0 0 0 0 0 0 0 0 0 0 0 0 0 0 0 0
##$GRDPROG= <>
##$GRPDLY= 67.9842376708984
##$HDDUTY= 20
##$HDRATE= 20
##$HGAIN= (0..3)
0 0 0 0
##$HL1= 1
##$HL2= 35
##$HL3= 16
##$HL4= 17
##$HOLDER= 0
##$HPMOD= (0..7)
0 0 0 0 0 0 0 0
##$HPPRGN= 0
##$IN= (0..63)
0.001 0.001 0.001 0.001 0.001 0.001 0.001 0.001 0.001 0.001 0.001 0.001
0.001 0.001 0.001 0.001 0.001 0.001 0.001 0.001 0.001 0.001 0.001 0.001
0.001 0.001 0.001 0.001 0.001 0.001 0.001 0.001 0.001 0.001 0.001 0.001
0.001 0.001 0.001 0.001 0.001 0.001 0.001 0.001 0.001 0.001 0.001 0.001
0.001 0.001 0.001 0.001 0.001 0.001 0.001 0.001 0.001 0.001 0.001 0.001
0.001 0.001 0.001 0.001
##$INF= (0..7)
0 0 0 0 0 0 0 0
##$INP= (0..63)
0 0 0 0 0 0 0 0 0 0 0 0 0 0 0 0 0 0 0 0 0 0 0 0 0 0 0 0 0 0 0 0 0 0 0 0
0 0 0 0 0 0 0 0 0 0 0 0 0 0 0 0 0 0 0 0 0 0 0 0 0 0 0 0
##$INSTRUM= <spect>
##$L= (0..31)
1 1 1 1 1 1 1 1 1 1 1 1 1 1 1 1 1 1 1 1 1 1 1 1 1 1 1 1 1 1 1 1
##$LFILTER= 100
##$LGAIN= -12
##$LINPSTP= 0
##$LOCKED= yes
##$LOCKFLD= 4762
##$LOCKGN= 112.124771118164
##$LOCKPOW= -23
##$LOCKPPM= 7.23999977111816
##$LOCNUC= <2H>
##$LOCPHAS= 73.89915
##$LOCSHFT= yes
##$LOCSW= 0
##$LTIME= 0.400000005960464
##$MASR= 4200
##$MASRLST= <masrlst>
##$MULEXPNO= (0..15)
0 0 0 0 0 0 0 0 0 0 0 0 0 0 0 0
##$NBL= 1
##$NC= -6
##$NLOGCH= 3
##$NOVFLW= 0
##$NS= 1
##$NUC1= <1H>
##$NUC2= <13C>
##$NUC3= <off>
##$NUC4= <off>
##$NUC5= <off>
##$NUC6= <off>
##$NUC7= <off>
##$NUC8= <off>
##$NUCLEUS= <off>
##$NUSLIST= <>
##$NusAMOUNT= 0
##$NusFPNZ= no
##$NusJSP= 0
##$NusSEED= 0
##$NusT2= 0
##$NusTD= 0
##$O1= 1869.97
##$O2= 10060.8
##$O3= 0
##$O4= 2470.96654339884
##$O5= 0
##$O6= 0
##$O7= 0
##$O8= 0
##$OVERFLW= 0
##$P= (0..63)
8.9 8.9 17.8 11.4 22.8 21.12 32 64 20000 25 50 80000 80000 0 500 0 1000
2500 10000 600 2500 0 0 0 2000 250 0 8.9 1000 1500 0 500 0 0 0 0 0 0 0
0 0 0 0 0 0 0 0 0 0 0 0 0 0 0 0 0 0 0 0 0 0 0 0 1500
##$PACOIL= (0..15)
0 0 0 0 0 0 0 0 0 0 0 0 0 0 0 0
##$PAPS= 2
##$PARMODE= 0
##$PCPD= (0..9)
100 75 80 100 100 100 100 100 100 100
##$PEXSEL= (0..9)
1 1 1 1 1 1 1 1 1 1
##$PHCOR= (0..31)
0 0 0 0 0 0 0 0 0 0 0 0 0 0 0 0 0 0 0 0 0 0 0 0 0 0 0 0 0 0 0 0
##$PHLIST= <>
##$PHP= 1
##$PH_ref= 0
##$PL= (0..63)
120 3 -3 120 120 120 120 120 120 54.78 14.12 25.95 13.92 120 120 3.82 120
120 3 21.51 120 46.06 120 120 120 120 120 25.95 120 120 13.92 7.9 120 120
120 120 120 120 120 120 120 120 120 120 120 120 120 120 120 120 120 120
120 120 120 120 120 120 120 120 120 120 120 120
##$PLSTEP= 0.1
##$PLSTRT= -6
##$PLW= (0..63)
-1 -1 -1 -1 -1 -1 -1 -1 -1 -1 -1 -1 -1 -1 -1 -1 -1 -1 -1 -1 -1 -1 -1 -1
-1 -1 -1 -1 -1 -1 -1 -1 -1 -1 -1 -1 -1 -1 -1 -1 -1 -1 -1 -1 -1 -1 -1 -1
-1 -1 -1 -1 -1 -1 -1 -1 -1 -1 -1 -1 -1 -1 -1 -1
##$PLWMAX= (0..7)
0 0 0 0 0 0 0 0
##$POWMOD= 0
##$PQPHASE= 0
##$PQSCALE= 0
##$PR= 1
##$PRECHAN= (0..15)
-1 4 0 3 -1 -1 -1 -1 -1 1 -1 -1 -1 -1 -1 -1
##$PRGAIN= 0
##$PROBHD= <5 mm PABBI 1H-BB Z-GRD Z820201/0042
>
##$PULPROG= <zg>
##$PW= 0
##$PYNM= <acqu.py>
##$QNP= 1
##$RD= 0
##$RECCHAN= (0..15)
0 2 1 0 0 0 0 0 0 0 0 0 0 0 0 0
##$RECPH= 0
##$RECPRE= (0..15)
-1 4 0 -1 -1 -1 -1 -1 -1 -1 -1 -1 -1 -1 -1 -1
##$RECPRFX= (0..15)
-1 0 0 0 1 0 0 0 0 0 0 0 0 0 0 0
##$RECSEL= (0..15)
0 1 2 0 0 0 0 0 0 0 0 0 0 0 0 0
##$RG= 16
##$RO= 0
##$ROUTWD1= (0..23)
0 0 0 0 0 0 0 0 0 0 0 0 0 0 0 0 0 0 0 0 1 1 0 0
##$ROUTWD2= (0..23)
0 0 0 0 0 1 0 0 0 0 0 0 0 0 0 0 0 0 1 0 1 1 0 0
##$RSEL= (0..15)
0 1 2 0 0 0 0 0 0 0 0 0 0 0 0 0
##$S= (0..7)
83 4 83 83 83 83 83 83
##$SELREC= (0..9)
0 0 0 0 0 0 0 0 0 0
##$SFO1= 400.13186997
##$SFO2= 100.6228298
##$SFO3= 400.13
##$SFO4= 400.132470966543
##$SFO5= 500.13
##$SFO6= 500.13
##$SFO7= 500.13
##$SFO8= 500.13
##$SOLVENT= <CDCl3>
##$SOLVOLD= <off>
##$SP= (0..63)
1 74.36 68.34 4.02 120 0 64.01 4.02 0 0 0 42.93 0 0 5.5 0 150 150 4.02
66.3 64.39 67.7 60.38 150 150 150 150 150 150 120 150 11.52 120 120 120
120 120 120 120 120 120 120 120 120 120 120 120 120 120 120 120 120 120
120 120 120 120 120 120 120 120 120 120 120
##$SPECTR= 0
##$SPINCNT= 0
##$SPNAM= (0..63)
<gauss> <Gaus1.1000> <Gaus1_180r.1000> <Crp60,0.5,20.1> <Gauss1.1000> <gauss>
<Squa100.1000> <Crp60comp.4> <gauss> <gauss> <gauss> <Sinc1.1000> <gauss>
<gauss> <Crp32,1.5,20.2> < > <gauss> <gauss> <Crp60,0.5,20.1> <Sinc1.1000>
<Sinc1.1000> <Sinc1.1000> <Sinc1.1000> <gauss> <gauss> <gauss> <gauss>
<gauss> <gauss> < > <gauss> <Crp32,1.5,20.2> <> <> <> <> <> <> <> <> <>
<> <> <> <> <> <> <> <> <> <> <> <> <> <> <> <> <> <> <> <> <> <> <>
##$SPOAL= (0..63)
0.5 0.5 0.5 0.5 0.5 0.5 0.5 0.5 0.5 0.5 0.5 0.5 0.5 0.5 0.5 0.5 0.5 0.5
0.5 0.5 0.5 0.5 0.5 0.5 0.5 0.5 0.5 0.5 0.5 0.5 0.5 0.5 0.5 0.5 0.5 0.5
0.5 0.5 0.5 0.5 0.5 0.5 0.5 0.5 0.5 0.5 0.5 0.5 0.5 0.5 0.5 0.5 0.5 0.5
0.5 0.5 0.5 0.5 0.5 0.5 0.5 0.5 0.5 0.5
##$SPOFFS= (0..63)
0 0 0 0 0 0 0 0 0 0 0 0 0 0 0 0 0 0 0 0 0 0 0 0 0 0 0 0 0 0 0 0 0 0 0 0
0 0 0 0 0 0 0 0 0 0 0 0 0 0 0 0 0 0 0 0 0 0 0 0 0 0 0 0
##$SPPEX= (0..63)
0 0 0 0 0 0 0 0 0 0 0 0 0 0 0 0 0 0 0 0 0 0 0 0 0 0 0 0 0 0 0 0 0 0 0 0
0 0 0 0 0 0 0 0 0 0 0 0 0 0 0 0 0 0 0 0 0 0 0 0 0 0 0 0
##$SPW= (0..63)
0 0 0 0 0 0 0 0 0 0 0 0 0 0 0 0 0 0 0 0 0 0 0 0 0 0 0 0 0 0 0 0 0 0 0 0
0 0 0 0 0 0 0 0 0 0 0 0 0 0 0 0 0 0 0 0 0 0 0 0 0 0 0 0
##$SUBNAM= (0..9)
<""> <""> <""> <""> <""> <""> <""> <""> <""> <"">
##$SW= 20.0254493935244
##$SWIBOX= (0..19)
0 1 2 0 0 0 0 0 0 0 0 0 0 0 0 0 0 0 0 0
##$SW_h= 8012.82051282051
##$SWfinal= 0
##$TD= 65536
##$TD0= 1
##$TE= 299.7
##$TE1= 300
##$TE2= 300
##$TE3= 300
##$TE4= 300
##$TEG= 300
##$TE_PIDX= 0
##$TE_STAB= (0..9)
0 0 0 0 0 0 0 0 0 0
##$TL= (0..7)
0 120 120 120 120 120 120 120
##$TUNHIN= 0
##$TUNHOUT= 0
##$TUNXOUT= 0
##$USERA1= <user>
##$USERA2= <user>
##$USERA3= <user>
##$USERA4= <user>
##$USERA5= <user>
##$V9= 5
##$VALIST= <valist>
##$VCLIST= <CCCCCCCCCCCCCCC>
##$VD= 0
##$VDLIST= <DDDDDDDDDDDDDDD>
##$VPLIST= <PPPPPPPPPPPPPPP>
##$VTLIST= <TTTTTTTTTTTTTTT>
##$WBST= 1024
##$WBSW= 16.260578
##$XGAIN= (0..3)
0 0 0 0
##$XL= 0
##$YL= 0
##$YMAX_a= 550872
##$YMIN_a= -515533
##$ZGOPTNS= <>
##$ZL1= 120
##$ZL2= 120
##$ZL3= 120
##$ZL4= 120
##$ABSF1= 10
##$ABSF2= 0
##$ABSG= 1
##$ABSL= 3
##$ALPHA= 0
##$AQORDER= 0
##$ASSFAC= 0
##$ASSFACI= 0
##$ASSFACX= 0
##$ASSWID= 0
##$AUNMP= <proc_1d>
##$AXLEFT= 0
##$AXNAME= <>
##$AXNUC= <off>
##$AXRIGHT= 0
##$AXTYPE= 0
##$AXUNIT= <>
##$AZFE= 0.1
##$AZFW= 0.1
##$BCFW= 1
##$BC_mod= 2
##$BYTORDP= 0
##$COROFFS= 0
##$CY= 200
##$DATMOD= 1
##$DC= 2
##$DFILT= <>
##$DTYPP= 0
##$ERETIC= no
##$F1P= 14.1855415402315
##$F2P= -4.83872429132195
##$FCOR= 0.5
##$FTSIZE= 65536
##$FT_mod= 4
##$GAMMA= 1
##$GB= 0.2
##$INTBC= 1
##$INTSCL= 1
##$ISEN= 128
##$LB= 0.3
##$LEV0= 0
##$LPBIN= 0
##$MAXI= 1000
##$MC2= 0
##$MEAN= 0
##$ME_mod= 0
##$MI= -0.0607842
##$MddCEXP= no
##$MddCT_SP= no
##$MddF180= no
##$MddLAMBDA= 0
##$MddMEMORY= 0
##$MddMERGE= 0
##$MddNCOMP= 0
##$MddNITER= 0
##$MddNOISE= 0
##$MddPHASE= 0
##$MddSEED= 0
##$MddSRSIZE= 0
##$Mdd_CsALG= 0
##$Mdd_CsLAMBDA= 0
##$Mdd_CsNITER= 0
##$Mdd_CsNORM= 0
##$Mdd_CsZF= 0
##$Mdd_mod= 0
##$NCOEF= 0
##$NC_proc= 0
##$NLEV= 6
##$NOISF1= 0
##$NOISF2= 0
##$NSP= 1
##$NTH_PI= 0
##$NZP= 0
##$OFFSET= 14.68618
##$PC= 0.0001
##$PHC0= 111.2215
##$PHC1= -41.78318
##$PH_mod= 1
##$PKNL= yes
##$PPARMOD= 0
##$PPDIAG= 0
##$PPIPTYP= 0
##$PPMPNUM= 2147483647
##$PPRESOL= 1
##$PSCAL= 0
##$PSIGN= 2
##$PYNMP= <proc.py>
##$REVERSE= no
##$SF= 400.13
##$SI= 65536
##$SIGF1= 0
##$SIGF2= 0
##$SINO= 400
##$SIOLD= 65536
##$SPECTYP= <>
##$SREGLST= <1H.CDCl3>
##$SSB= 0
##$STSI= 0
##$STSR= 0
##$SW_p= 8012.82051282052
##$SYMM= 0
##$S_DEV= 0
##$TDeff= 0
##$TDoff= 0
##$TI= <>
##$TILT= no
##$TM1= 0
##$TM2= 0
##$TOPLEV= 0
##$USERP1= <user>
##$USERP2= <user>
##$USERP3= <user>
##$USERP4= <user>
##$USERP5= <user>
##$WDW= 0
##$XDIM= 8192
##$YMAX_p= 0
##$YMIN_p= 0
##$CURPLOT= <HP Color LaserJet 3800 PCL 6>
##$CURPRIN= <$noprint>
##$DFORMAT= <normdp>
##$LAYOUT= <+/1D_H.xwp>
##$LFORMAT= <normlp>
##$PFORMAT= <normpl>
$$ End of Bruker specific parameters
$$ ---------------------------------
##NTUPLES= NMR FID
##VAR_NAME=  TIME,          FID/REAL,        FID/IMAG
##SYMBOL=    X,             R,               I
##VAR_TYPE=  INDEPENDENT,   DEPENDENT,       DEPENDENT
##VAR_FORM=  AFFN,          ASDF,            ASDF
##VAR_DIM=   32768,         32768,           32768
##UNITS=     SECONDS,       ARBITRARY UNITS, ARBITRARY UNITS
##FACTOR=    0.0001248,     1,               1
##FIRST=     0,             0,               0
##LAST=      4.0893216,     -29,             -4
##MIN=       0,             -515533,         -515533
##MAX=       4.0893216,     550872,          550872
$$ Real data points
##PAGE= N=1
##DATA TABLE= (X++(R..R)), XYDATA
0@@@@@a%%B@BcCdEfGiA1a2A5a8B0b5B9c3C8d4E1e7F5g5H3i4A07a18A33a50A66
39a85B06b27B52b79C08c40C75d14D55e02E54f12F77g50H32i28A039a169A326a518
60A759b071B496c104D044e678I086a9153A22330M28542j22493i8158m17375O3053
73d52480h7188A78114l2992H167g81A06225J388f9797j73258N9871G0236J90350
85B60586n0744B7976f4701a5459A4309h2842r9659g4418B17950J81068j78211
96B20807a92630k53306J48997G0721J90616A04928a75907p9432g4950A30277J7279
107A47556B9134a7884G7986R1979o4715f0722p5101d6651F5742k5335g8588j6085
119i4673F6231J54836q4890a61992k08393J28646A17447K27884j24952a02804
130b82939J07034C6890O3115h347p3016C1398J94067M4113H9684a40593o1666
141b02259g1009H4977K9798C4446d4371l0977l0203n0491O424h761A98510Q1840
153B80350A22625a59563j54189J12006F6075J89599j4266I3786d1186n6918r134
164a07238J0771d0170G7810J14118M702F5278a05096q3932L1306P1889M2346a9219
177C1197N7987j4623d2459j20747K2106E1656K12337L5560A13184a39375j10300
188b49675J00550D8334J23826k4902C0422g2239k9025L1761b4387a083k617r004
200a2704e350A9720J4201B034g3251o1192K2387D628J38845O3000n1792C7322
213e9581k4831L9982B0956N0111M036A9424g1726o2661K2712a8190E8789j3187
225D5602c1230l7151h060H0652o756e1336j13385N0350I0728J73953l6167A283
238b13796j7520e6304A46502P9507o3069C3330i1170q6112j8102P9637C4306J10895
250A45201l1707c5083j14136L9156C0203P7041D5187d6086a0038A42141P5520
261B17661G1322a89775j02445i9674B13867J22427A49638a52907j34745J11129
271a76523A4097Q5035l0159C3625J602a656j19011r4585P9801I8909J70266p5240
283A93935d4744j32779f0707A49480L4972e852j79355O4495A21642J21803G2334
295b20746r2214a04847A70113N3379C6041a52934K563a9404D6539g988l9068D0380
308A62988k2855c9758j30316g7004A42376P5253D0577a81946J1508G3641J73980
319B47621A08967b14643j41682a39117B08212J02007G3177b23809m3306e7660
330A34958j2481A984a8421H5673M6747C367a67414J7655G3904J82289p9353h0150
343b20684a00973I7118L746a00209j32377h7004A97358Q1254B6410b99973l6512
354c36485c1745B97487L0795G8608a56442p076b1911E8887B2402G57Q4480Q3270
366A68507q3926a38161j28099J30055A24834J03429F3920a66639k8303a1964A29366
378C8946a62837k6938D7406K61015j3525C251b63195K6763B5640K04302m1423
389A88519D6a14430L2550a9943j7093m3172c0305A01273N5902C6057a53161m8696
401b01857e4541A16205l25c3459q8989a9668A56483K2459c398j84231L7676H7920
414B76445n9715b6258j86908J5132e7671C9464n872A448J2493K0987g431q5349
426i2780k0305a3830A16687K3265C4580g3946Q197B7756M0810g272r2440L4440
438f5272I6183J23124o5968f1981j66639L3870e229A57385J510B4247a20124n6731
450a76855L8094e1733D1172O9561J9083m3763H385d3881Q981I365K3865j6451
462A6779d040I519L1742p049c5163p8915m471b2210A07978O0288o1066c4843j26928
475a61771l0806Q1684B8529J05558J181C6049h0593l5431d1078G6159N9780l3222
487A02717C0527g396i63j753m7558o0070l626d0253E4796M0637l5924a3021n7929
500g0950j9336K6074A0770J01941N8162o2987f5664j53438J3802a6272A85877
512B22520H1833g3857j6818A1326O7181A8252i0235j0554A0783R8511m7148i6444
525b00386N9270A7417J10340n18m8668k5603k1649d0063q8333J0043C5367J68163
537B03530q883a9827k20780k028b5480A83924K112B4698h7179c4628F9925k3222
549D6703a10683j06534R0747H2377J11309q6543e5923n6814c4960E0334N32k5015
561B5851M8132Q3650l3361g9117k02239K8590A2438K38675l9093e4238j91999
572b46237Q7828H7053J10968F5489a18044P409G2893J10552E3586a86628p5241
583b61869h1309A60486O3029I6550b7111J0664D3768B703a20645k4699A8028J88613
595B06641l0232h7543k28055O3884D2295K08702q0801f3017q7776F79J77724l7547
607A40856g6568j30191h5875A42393O1534B7252a78270o532a1450A26894k5326
618A01568A1300L169P9665j5054a01679j74960N8492E9547K17085p8327h3953
630b50069a22420A33231Q3214E4437a24495L8459A16545R5465E2144a99994o3873
641b63867g5540A46830K3518A2520a12506M0139C8016J6125b8308k8859D8616
653A61586o3792a28505j53802J08564A05092J66428j00340e1526q4983a5836A23238
665H6611h3436q4041d8859A37902L0739a401j87631j3279e2066H9207J5750D8321
678C0514K6963k0054f1864p3596f6466A02758Q4693G2483a37158q2682h6542A18769
691A85994G4347e9968m733C0822L8898b5810j28282l911a5165A35501J5881C7179
704h1919k5318e2708A0894M1597L6210K7870k7647a7678j19921k2413e1600H9904
717A29792C8432g9610k3683b3405F1419L306C899c6356a1160C6608j524b8852
730i5160j126b2172G5868N7019j8077C2473f7618n6635K9078F015J01100J9722
742A26837D6359g0189o1698L0477b0455D1046J0311k0145A5177j955j027A621
755a3617r137L482e97B9713K3274j4753b5123o9833k133d52A28700M2311G1278
769i4109q8101N8402A1964Q5186k0082H953b5105J1835f495k5199j7181a0044
782F4604L4907m4072a9927l1338K2105a2241k3255j6413C020R9369K7556A6617
795a49877m5940e4372A43741N7863F9041a07006m5632e5294D7437J161g154Q39
807f315F7995M0095B9398a03080l8296c6627I5145J7199A8039e4999b3314C9095
820H576a04218m1339a4408A80201L9368C2474b00177l6336d5560A62391J8441
831A80832C3051h3691L2254C9446n582g0079m6989h300A50720J6618D920a61620
844a53587c038I6348C9106f3521K2705I7876O1073A6434a99469l4182a4083B39518
857B54924A9684b07906R743a970A38709m7333b8765j0371F3001M2266a6468j64018
869a80486j266E122J74848k5123a9696j06389e4860F6210j3348h1724n3141A5344
882B23834O541a9049k60507O023h731B31380j9553Ea43813N9689E2700J8243c8145
896a01076g687A31837o572d8422j49796M7022C6236J16614n8886b1781l238G3510
909I8494d4287j68259K9074F1377K17594m9774d6417k18116M7175H197J48238
920A56435n1418b0736j8306E3467M2554f620j40893j740F429J41199k7777c0157
933a21014N8010D4943J6229i200k2138F1730R4117o5346a21208j51010Q4487F5311
946B40863n9462b0438j26289M5163I366L1894h636j4691E6078Q2672m1235e9694
959a84351K8775a5413I0794m386C2242j1093K8344j4609e0206o7084N1495G5831
972A57972G4392a07381j03140P3852C6326J13532j7492D8571d883o433j2161m2294
984f5771k3671c9614F0560O0301l9310b1735p9122n763M4665a0299C7864N4500
996I2364M1494k1992F451a22563n1681P0901C0669Q6249k1320C463g3397o836
1008h0233b7237C8864M0524K406l0412A875d7822l0655j463K5562i981D3135M3051
1021H6186L528C4294e7853o4219K3157G676J15879L9992o2425a7290j01727l8689
1033a57706L0629d5136E5278P1621j429D9746d1869l3419c2262B9577J1849A96
1046c3313J6286A4367d697o8976l2118b6030A22673P9992p8870e2076j16924L2761
1058a36239a0807H1728J677C8265F020a7160m9292n6337J3306H934J43274L8851
1070A91059I0174d6923m7709d6411f282l6262n0185M3722H3324Q0163G8879a02121
1083a85805g0514A29780P8597I4331g9212o1165O9990D957e867m2170a4593H7820
1096A30052B8559a26728l4316b4000A43124K5945D9804f2059O056D673a5357j08645
1108a24002m7837d2841A73175Q4444A13533a12311p8729f8159H9988J6510b450
1120g5264b6648D7687A3454a06309l8718i123A80893L5725E0442a40148j8821
1131a58969a6253I9145l9502e2440j6933C3003O7488G851a59272l1751a1344B11858
1144B51020G7664a14960l0527d4540A8388c1820n4723a8465A24645L6613A1987
1156a74668p360A3523J89506j8398d051j38323M6778C5283K4987d9680p9487d0988
1169A34424N1320C3013a63592k2705a3364A62806L740C0991g2446J4352a2169
1181d5642p7621J8324E2602J52379k7501a6294j56526M1507D1463R5694E9291
1193g0668r341C2278O5061A658a54268j4283A0437J95852N696B6572a49977o9
1205a50046a5936G9349k9883b2848K43C6717M068e4022q7473N0374G6711J18604
1217A95315n3358a9448r7265M3802A6609M295e5054k8241A0059J23215k254b0781
1230a69791J5734A4470J50139p970B3578h8554m260c5903g942j3899N613D0150
1243I1296k7547c1199o8258K8404A9030N8345j6210A4809b576B945a9680n9351
1255g9031l0202d6291G9828P7052n0523b8930r7870J7420a2313F7917R018l7979
1267C8956C805a4521k0680k7511m627b2376E2096M7780j7533A5283e0259k4831
1279g5090J8290a5553B8129L0185J226B3429c5812m6157R02b9204D3497N1339
1291I4836J093D4707c4425o3691o635d4627D3596N2519j9288I105d8062r797K3691
1304c4168a1151B823K3564L6503J3026B7034f5296n9087L4782A5219Q4773m25
1316I9567C3965b7188j8519L351l114N431G563P5403L0686D7395g2662o4333N3073
1329h3922C1795O7873k6180I061a8328f647o206m4898k5245b5806H3836N3082
1341A36918F7929f0867o3024N1800A9835L2546B0627B353L5465K8069H102a06679
1354a50253d5223A23285O2115G5908h8537n3287e3558E0628K200a7174j9907C5910
1367A01520D6573i6134p3154g6274I6170P6075q5300d8722m2772c2770A5038a7679
1380f4092b0153I6376M9640C9780a31245n3141e6638A17552M3101E2682f1891
1392f1414A0829J2518e7156n7465c9403A12945N7865E3432a20466m4593d2010
1404A01983J5257B3001d0406d429D2757a0716j18520k5708a0359A79112L2765
1415B11877D6448a42619k0639b2256I8288k8360c6209k2928C3073O8367B2435
1427a35311m4314c1069A67278M0107E5859a13817j7282a8193F2229B2684d9912
1439b8733G0532L2270a0822j49383m426F009J76261L947C2797a01102Q795d145
1452A9922d7679m0084d742A29043J9645E885a56111n194f097A39405o276A6508
1465e8458b5770B5830a0004r1543j2377G640J38892l472i916j37623K6639C2698
1478A40575m0583a4126m6707a2305B5095c3568r3577Q043B3783J48038K130C0505
1491a09415r637b5434D6558j3873h712A653M6498n633d6852q7004K5460B5218
1504A42385q262B6035f1835N967c60A7477a7635k2368c335D9185j1632d5496o6820
1517a12316L4584C9539R4241p724D0311c9301k6266M845R37O548g912F7694M1752
1530A09446m4154c6954p0458K1870A817P2907R882l5205A2764a0955k6752l3272
1542g0979j1259L8118B6393M8317j2544E246d2635n66c103D3166K3249r513A8095
1556c8761n1209j4132M0105A2855O8718K2185l0079A5191d0936l1675N102b4810
1569C6349M1530j0828F921f1116l0691J8847b6139B2414M0024K5915m401C5155
1582c9206m6395K2144G146N0156j8394b5651m4283J3302a1006B1304J0757J6086
1594D8147K8390Q09A2115i0149n2057N3868B7592P4724k1286H460c4377Q670J2352
1607a3355j9606j6242c102I3321N1948o7203f4562r0093L8668e161E9548k5981
1619C3567a5841O731D1388J3168b017n6670K8164F4650M8328C9208i4729n8206
1631a52935P2501C8611M7152m0774B800J8873L3757A9283g9742m9916d8540I9444
1644A61331F8674h2358n8819O7822A6115J0374a5044d904H2693O2088o6871g6381
1657a60772P6222F4275N3316B3869i6664o618b421G2872l4412c5843R951G3518
1670A29857D0210a24457o2955g2442A01813N5079E6454f6092j3158d919C1988
1682a9797m9744a1926A17661N0824E7261a18930o7057i1344D4030L4135A2131
1694c3408A1446O4239k5305e3572n2085b2107A14035K6584A2550a37055j2700
1705a49755b5036H8833r869d891k7382B9842M6203A0684a10743k5601h970A47558
1718A63160A9523a29752r778c3842D5027B1751b7010G528R9876L1763B8038a29951
1731a66800d0376A11089J6597H454i9903J5579I694M4259F570d3508d892H5609
1744A04089A38a27482j2612b2006A02153J1063B6032d7390N492d703n204l7740
1756d7647R842E0156Q4740k4844b1846j16936O388b6636E9391n745C023e671C4811
1770D7609a4530p7104J0301B8459J00962j9394a5135j04712J2983h661F3548j0639
1782E2909G348A76L0037J028b9375o4395J5372B0299R0410p148H349h1975j2577
1795i4552d3696F319J6840O525K1116J5716l0280c7839n7734J6713B323P4333
1807G6656O949B8962c2401k4713J0930K2933A46K6774K4856J450A7457c7547l4615
1820g2162J1439a3177C7667K6859n544B6114b2007m1477p684c1778C4061M6634
1832H0695p104A9756d0299k8221J1627b2056A5669K8432R941j6611b924m2708
1844d5632j7477J9705g8D1215K0466p500A8589c5246m3696L762a2274G0490L5855
1857A06345m4304b4749n5527J2309a9597A0103j426K607K9470K3890C2024e1737
1870a10426L5623C3208Q0180k1781b529p1121O496a7951H751B462O323M1722L0714
1883H1221C9468f0625o4292M4346C4997P4330l1684a0762m8777K0180g975j1421
1895a9396k6079a6005G4063O1076n3009e4223r2486L8350A2776P9145k3579h26
1908b7173b303H332c0394l4480b4090G3249M8718E3184g4121n8087O2258C3125
1921F7558B3512a2662A6271M1785B4414g6044n0479d0646A15285O4132G5782i4251
1934a63432P9474C2433K7002C237b5308C1114O5910l3391e9160q0129O1031F4821
1947A36445F5898e8855m4702d3461B5437k753a6595c411F9680L5840B8853a00922
1960a43968d5773I1060L1587B8375g3778k532f597B4909b1549l9772c229A15774
1973A58413E3109a08144n8038g4495E4165L2139A9381c6727a0795D2867j4000
1984B8867d9954l6984a1049A08078K4006B0829a13005j9369c3382E9937q179a5608
1997c0906C2797M8631B7383h3861l2543a0918A30935K4179C1418a13730k9517
2008a43247e7590B7040L077f226F311O5373K7548B5939h8829l4207c6582G8208
2021A02796B5408e7733p340a8954C035a9427o395C2057P5277l857b415j12787
2033a15202o077a7709H4431J444D881e9042R892g968L830l0382N251D5979Q1777
2046A27756q577F640a13537k2305e5386C7363K5394B9776H04L084L093b1467l3301
2059e4768J8198C9733O6435j6624d369q8783j1652d7369A3645K0182o758L06P041
2072C4416j5955b7111l4000K4071C6582N8118j4767A450g6904k3668L2047a7126
2085B4341K6837J3588q792A7292c4735k8588J8507E853M2308M199B0844b2248
2098e4009q502J9164B04N1188L0265j2623A9612c4803k6248J1581a4956A9700
2111C7848o375A349c8871k4203J4215B58N3035K3021j5710B3814a2900k8726j8672
2124f0298K300b2818C3230L5971j9344a3168n1488O264c353D8584J0668k1588
2136C7664A5745B218b2122m1121k4239L3399B7465O4338j1070H142e3807J855
2148e1952d723C0098k677j2304Q149J0523C937f5503m5057L9681C2430P5910j7374
2161I0966I673d8780Q814b144E613a6525K21B8677L7644C0472f5917o0936M9364
2174g7489D4916Q1334k6885A1137d2277J3244c973j6611l2703J8879D3471N5564
2186I9035m4520f1059p0297M9788C6444O8964l0488F339a7027D993q85d9223m3222
2199i2445M3764F1561O3264o0691f3384o1058e9194E4260M3001D7249a1601L798
2211g803B5616E937g5454m8834e8571G7166P0442o8515e3466n9441e4310C5944
2224E6675A2254a1309B6824L5752A5730h9742m7682e6124H3507N7900F6955d7315
2237g9747a9255C6956A7089c6056N194D1184M3356B1396i7536m2170d6557I2344
2250A39130F1733c9883k1706a2983A4641b0996l6844a8916G2537L6373C0389i1744
2263a29461d5237F7238K8657C5992b1023R106B2870F223f1077l0182b3798H5055
2276A16982C0762h4278k4547b7564F1908Q300A5610a6408I002K5395c959p5811
2288g9770j9004a7259I3106K6997C7897f5000k4167c2205B5319J591A641P387
2300I028L8760N391a2386q3505r085a8045H3902K0962C7351c8294j4198a8606
2313A978a2321p687A6434N0528l951a3300q1094k147a4017G3883J6080C7620a7840
2327c1991R557m125j4549J4832C1035N3124j1937e678p5627o029b6023D0073J9413
2340E9486k1649A2871F91a5197k8976j6437K9756C7095N0594j5698E15f5760j0785
2353g6545c6286A2380K5107L041n455j4318a0887l9460j5957L0318B5226M6581
2365G1807k745B2699c1115k8492N173b5688A2334L2770J1703k0035g547m1334
2377d8881r897K8194A5402L4585N169k4126i893l9015j6260J9655B949M8380J6686
2390F8015k4124a208l6656j2775R491a5929B0288L4792R225B9905c3745m6798
2402h0543R158a3412D5610J7549k2922I064h487j0702j5098p317a7367C3574L3349
2415F6923k5416b8488n1000J6653C505N3282J513B8059G810l417a1266l9944k6412
2428g7622L4512D1434O0679k5453a3777o9770R794a0808C4943k080j5818R299
2440B6344J7814B1294d8508n3003K8653B1452P0404j9199e342m9114K2068A6239
2453B6354c316j2165A9643L5110B3856f3991n4147N0593D9410P1531l6754h977
2466e9567K3128A620d852l0223J3828D8967N1146m4023e8055p3372M1609B0682
2479H8966k3575F749h158B0511M196b8662n3597K3966C4015O1405m4667e6218
2492a08475d9809E3025M0208m6352a1695k616A6049F739e5820m0336d3698F7881
2505A25507o0068e1375n6615M5795A7625K8567B2503j0007L3515K2815A6410h7035
2518a38646O4346D9287O2769m7668b3452k7828e474C8298j7195b4895j753B5463
2531E7865H839h3018l0777c7134G6683M0352E5988b9208k5416b2645D17a7448
2544c1903H880P0672J4443A1354a01890l4492e9783D9270M3789l4651A3231l344
2556I887J3770B77e8035k6496c3524E1684K8503A9475f3746j5377a4425E7065
2569F6825B5559e117A897P911b1195m6780K245F727Q0104M760A1906g4809j4858
2582h9667c3732B6548J6627j0001L960J5775j6749c2597p2519m559c3386E7303
2595H5798m1730i057j2043b15A0690c819j1081D329K9610n305b2343m9771O338
2608f5776b938E9888R733B9324a5322j5340O718N942L926E223L5467K0231k7049
2621C3872c1696n4420P85c2519C0412L5417J913j6589B4920a1153l8154j7102
2633f6409K2045D997L9294l27I233b7933j1452J6762F075K3597J0452o091A0756
2647b1951k4100J867a5558B1050K0784o364G834b5897k2862J895a4595C6278M0570
2660G6848Q41C3887b8442m3397n113K6010a1987B6513K9286O870k6873a5549m0780
2673e6329M190d760D4580Q877A9298b2560j6859Q003J1920P955E529L1476K1755
2686E8760k0380b0359m7970J0760E610N7859K771B0122b7862j8125K047J240O579
2699c6121B75O2682M0137k9986a3405p1598K015b1819C2395M297A1431I97J0846
2712A1843k699b5932l1972K2495C7903N5106k4439a6535o3344J4042b900C7055
2725B4395c160a323A8982q836c8017l3125c2978E6629N5318l7911b0975o1678
2737h2653J6254a4573G530f218N23C5759L8443k6769c7446n9550L3140C1587N9639
2750I1226l1737a8438l8229K6370E999i64l0800P620C5313M6822l1412c8464n4318
2763i2782L9439C6323M4514l7984b1653j8476a1874C294b5892k8361b0453F3248
2776A10360n0566d6394n7852M0131A8402L5581B3402a2524a805C0160j0419d0642
2789h1214c8487E7972N1385m9829c9631m8292L8586A6135J8238E282a0912A6948
2802D5841A7924e3746l5223c5180F2434M3331n2106c4895l7674L1133A015L494
2814D509a2177B267M7919K1228A9656f7571l3494d0703E4805L7407D5487b3818
2827d6152b1271b654j4599j3035A550N9227J8373B0774f5871k9612d0164D1163
2840G1659l3064f150j1798h664p410k4767L10A0116O3064Q078A6447f3229k1016
2853h4245c5602B6110J9401k0009G900L652k1a7828l8262K049C403O5383R472
2866G8258B1199d7922k1250L2543G034J8637j407J515M933j4380b4833l7353O994
2879e5192a907E2842R715B5528a9727j8625Q035J3876e147A2224K5220J2122k3916
2892B5650b6094l8838Q519g498D0137J1686k2697a274j8214o211n03Q307E428
2906C5525J3074k0568a5754l5492k869b5722A2705K7238O799j3947C096c0070
2919d7637J2251A054L5489R409k1174i350k4992n740J1424e543B2724K2109Q70
2932D5703A9521a9941k6323L785a4473A7042J7628j095A6274a2350k9006r810
2944e1166K4900B4179M0532k406A7985c2086j9390J5130a1242C668Q043J2376
2956B4087J0107j2883a8666l6360O300C093N4710J0422B9260b1380k4619M262
2968d1737J3097J2743F386L3624J9513k4093b3427m3276J5193H849M7901n236
2980E1514I885b0869k40O196j2571j5539J9941C6333M7522j8573a0797o3372P729
2993f6440c030D8304l610G997a3613M591l01k4106j8789b2965D6992M6696k8457
3006F5231a5405n6301J4383c267B6125A1598f985G179K6036j2816c7294m1999
3018g9293L3361D3769N9607l0449a3831n5718J8278i28A6404f715j2971I911L7593
3031D7504j2799b8875m5845L1463D0791N1353l1500a5057m2818J6317a0313O6
3043a0247j7490a3413D1246L8501l3102c7074n0671L5614C0849M4139l0473a2809
3056c2201a0378I09b6941k8869K6230D4899M8681l4513b7799n0999L2157B4464
3069E5768B4395a9877n617b415A02c1650j9874a3374F1330L6561m4799c2046m5213
3082g7259K6115B079K1727I508H79J8632J4014C184e5611k2218b5419F0316L7412
3095I7728m4029b2298l5125K2668f04A502a6577L556B0484K2282A7027c6101k0333
3108e6434a5063D9466K3716l6075a8188k6321P049J0943J141J1002B3662M0987
3120F4649k708C823f1662j1250b0801D1738J7512k9530d031p914L554j3244k5465
3133d7100n10b875E6162J8631C4879b4529k5334K2389I281J4921r203B711b626
3147a1848j9739j1687b1463B9537M0170q217A0376c9676j2307K2262b910I820
3160A5462R766N315A1941b9384l2273J0333A49N4111J6655k6698B08c1968j0825
3173d2793N127J6246C575K4418O607A4722a7763j7026J3995A2306K4970rA7191
3187g426j9103j0831O54J7768A3491K9747N628B3281a6934k8008P17a7679A8360
3201D5944N561k1832a1613l9156j2209K3463C436L4210P806j4439I196i235j2659
3214b1894l748J0827I250K0707l143b408l2507p603a9505A3296J8907M7q503j1515
3228A2232g319k7260j5477J9191A8848M1899m672F182d6355j3477K7144C297J8938
3241B2235N343O633M177j7809b2648l8201M124i745C8512P997A6261a4544l863
3254a8407e912b671p714e151B3612K4544j8105b7917m5679J5106F714N4070l712
3267E7072A0418b6552O87h920J178j0812i191C0149L2708j8301a9428n2794O594
3280f5628a2007C3560L590A7701o334Q182q687b7514l2510J9822B5905M9283k1374
3293E3814a9702n2059J7430E386L7172j2430A683h08A7182k893b3869l3767J8890
3306c8746B5331M6871j8678a0305m4567R442h857I366C768L371K7841J9224B3097
3320d6321m1789L4573B8851N0875k5116a0733l5762J8157D490L261a1308J314
3332i994B4993K7974k4035c4722l9727K7247A9693M0254j7106G01a8677Q402K978
3345g297j8782j1396f774E1112K4913C1407d6849l6644L7886B3457L2392k2789
3357C3060b986p142D144A699b6947j8076a6872C9741K7553l3454b8384l0806K2482
3370c6708E193J8337p641m440J1027J853g639m6594j0501a5898E2924K4300C6332
3384b5847k5616K2082B479P257g6B724K0346Q552D945c8111j4415a9375C0915
3398E1657k1676e327j7104K289K292k783R242B0099L1516n484c128n3369q726
3411f5223b1589C3653K1191j9484D379a2130m104o712q805O967E969L4101O458
3424D6528A8026b0628j7025J2482a092A5457N805L45o856e607k7994j2719K1553
3437b4767B1162L4435o430G521c4669j2466J8903A349K1243Q288k509j3421i548
3451c5772j0565J5879C954L1529J1676j0545A1998a6212k2039m807J9432A2312
3464D1201j116H258b9262j3775J8614I500K4420K306j5992c371k1387j0679P178
3477b8259d052B3840J2322j1694a199k1335o825N337a1550H346K5711J7940j0087
3490D1910h48n0580k0399K6578G037L8505K527k3939b261j5086m859K475g181
3504A4369J6151o799e376k7511j599a0957A3636O424o901l304K891o169a7114
3518c9408R221A4288M3215j269F621d9950j7750K7786B395K6257P211P88l878
3531C2773A2539b4277k8424P931d024C3055J624G588a4377K746E52a817j3399
3544a5216K882A8618L0350j0938a5241m7655O588e30D9891o3H226b8924l476a5808
3559e769J905A0283L0149J6536k7557c0534m1751J3005h646B9951N02A3986j082
3572A2904J1635p508b1722l4982J4460A9121N0189j4033a1186n3623P366f427
3585C2671k197H585A522Q224l797a9338j7759a5527C3279K5900k9238b8718l2014
3598f0732J8644b808A5220n829K401K5230J7760B5813d0688m4363K5343A4907
3611F8717j2852b07l9572O056f420E526C48L831K2256J3826A7386b9703k4758
3624e4461K4425A7971K2101A8886a4169p227d175E040i331j2514c07D5592K0808
3637F6400B8105d3411m1009K4909C610M4093j940A8959H19b763o187j4760m429
3650b8139e026C1378J3716A9401b2138j9090J4466b234F899l287M729J6482N499
3663C0322E391c4138j3589a5240C5993K0917B7336b4602k9015J1364i786A6197
3676B7756M449n12j4443a3015k8005j422a4209A9685J2421j2614E85i162l317
3689a2479o137n052J1772B0032K9474l136E909d0980j4905K6554A3028K4069n991
3702C1106H064a3111j0649K30J1287I181K2290O648j7599a0919k3350j612J4828
3715b1053c466I930J1284Q257m062A961b9744j4670J9019A6116L1869k403A2224
3729b6395j9084P521a2560A6219J9387R57A7302a1768k0009K901g076A5433P607
3742B3040p461C550e994q698r282k290a1097A9142K5365j327A2568b6004j9729
3755d5733J0240e410B4517J4099p871D665b6501j7014J1014A371L2751P600k0303
3768B1419f702j4409K343O301J353L119F501K0096N042I623b5168j7532J6216
3781b6484I992K7673J567j9602e710k0710j1095M816g378B8376K0438j5297h563
3795d1946L335e879B2679J294G817f83E157J949a0713k4588m16h73D2186J1440
3809E3626B2996b1492k1198J1547e942A2753R623N398l992D05c4884j7424K3509
3822b8799B1643L3223j3800c145l0069P325a280F759f414o369G797K8713j560
3835C4950f296m4071j544g559D0710J0167B2624a0571j2956K210J604K483H22
3849C2509J6319B4414b6568l0874J9328A1190L0155j2446a812j0977G74Q073i764
3863c5134N738A3747M0651n377d18m6852l449a6152A8691R717p376o224n270h116
3878c5387r305a5388C4347K4365k5791a7930k7307J5712B425J1676B522c673A2762
3892C1792j0894b0264l2122J3389A0866L9817m763G313b7033p127J1715i888A659
3906A9876J9175k548A289d3029j2701b2313B6669K0001k1275g921j1509h263e60
3920a0758j1160h469B6316K2025j8179a6110l3266P367e725B5762O311j2609C379
3934a0523j2877n705J3784A7077K7296n062A630c7046o620a7526A2148P834I974
3948D239P267M736G88b7353j2056a7615B2713K4355j1811b82l0487p325J2807
3961b5287d539A5471J4015P42A2556a5754j7677Q850D112K2864j964C614a5087
3975a7032Q370M223j926b760A3460J8046o63D618c0026j6108J4888C357L0342
3988C3699Q401j6147d493k8678j0962J4839D397L1687Q516j9182e470k0458k64
4001b6192J2072b424D191M878M684q66A754a4283p463J0410A1222J8098j84I358
4016a8577k0329l98a6658A8905K7490o28A4602b6652k1662J2204a967B7693P622
4029C5315j1591F444g664j1036p872P84a0930A2540J6988r81A2142f784j0473
4042a7257m34O684A043J4008O589A0294a6295k1326O784D363L6501O696A9238
4056a8799j7692J0023e879G086L702L364M768l703c522k3562q885J4701E909K0948
4070B6857N974n702j2841f256k4964j4027J4042G753L4414o96E751c1303m014
4083c5317e804B5739M783A0614i561m268M530r16n525M916A0318K1533l71F154
4098b3141j0462J0853d377A1133J3790J1806k782C909d2325k6426K1876A0931
4111E7652j339A5253b3067m890h048F488B011g231c051A0155J910d948j8037L920
4125a9065E859K1658j497F563a0342m542N7k328L936H561K9944P866A3141d0191
4140f7034K5599A3825L6766o624A3289f980P94K846j1757j5627M552C009K8711
4153C1720J094G917a6075k243d945D401j106l93P681M094a59k7004j0088a1305
4168C2107J9091B4754b3376k5018J7156E463K0992m566A0614p49K708B82b7494
4182d6465J2748D563L3593N520j9118I01a4496q804m259P632D632K8157N404I602
4197c0819j4514a9281B2846J9166j7712h259j6553P378c200A899q80N540J2209
4210A8768L086C732b5368j5541J2309B026K6779R212o925A4440h485k4530j2832
4223d5847J3464E052L6124N945A7933b0855j6278J5262E741J5074m642C807c319
4237d280j599l978r3a266A1257N955o246c053j2709m752N533D27K0342J4133n279
4252B9623A978c2658j6503J5555C182L1221N670j7952a946j4660k414M368O929
4265g723A291R565N248l769I41a1032n823K653d639H588J1637J598H248a5036
4280c1114O529B867K7744N268A3940a7593j7806O021g479A4774J1939n06j0731
4293A5476a439j6601p937N304e922I149Q533J216m614C593a2876j4423M96e115
4308B5335J4862j5718a0885k6521K974g107B0798Q663j1293a08j3287m931K465
4321a5861f377H128J2558J097I274h249j0643L30O523d038F096J3065Q816p743
4335B0234f235k8121n712a5262B1334J9306j1425b48k3602m318J1167a071A2701
4349B1463k28H511a1936j3781M530b217A4809L062p508C818A582c999j3416r996
4363b7411J0700A4804K7807l732B249c7372r449b0959A5145J7970o732H680f070
4377a5315n407J875d082A8160J2279j0439e232j8174K159f714C566J250K278R491
4391A6585N822H395b2630k1397J2952I968L4297k151H181b5588p838J5569A119
4405A0553L077K648k032D82a9634q411a3833A1723J3425q975a656p219c496f26
4420i453q299g191B0528J7922j5620a7851k9476R259F45L3217K710A5240f303
4434a4178L67r8J428a540A6348R270j0480g298j4035M609b767E344k99J153P288
4449A3486K884B062b3268j2163a6959A9836K2355j3175g531k7463J983i178A3800
4463B2517k592o532C272a2288j4576n62i186A5809J2331p567C623h108k995j123
4477a2226j922M690G886K0282K802G175b7010j5023J8083A1768K3337n203E725
4491a6006o418O514d675F638R423L118q086f315j5445k053a1586D942J0862L222
4505A9026j332n723a548j8855j1514Q924D852K7013M374A4104a6693j6402P149
4518b5946d603A4925Q096l983G043g898j1414r65i192G252J0364k059E031e455
4533a0850j063J899b964A0565J3922J767H740a9207j8548N864e032B3775J1708
4546C5483j0706H24b0706p940Q485a009A7821P479p945a29j5040m135O109c419
4561D787O355M525p30D705a2042j1668M735A063K0883N518A3263a0094j6808o07
4575b7509a3161G826J7200M191j2180e486j8874k168a1184H865R962m425C855
4589c061k046k695m400M49a37A7670R098j0094f848j9152r77a1201H712J1903
4603B0615k24j0091e286j4378m039a1689A0860J6974k530E248a5251n977Q479
4616a2749b495A019P01N793Q948l02b48k1970p127a2605A5435J6210p275A705
4631a8662p273N467f960A0385J5270L382A3717a2992j8573N106b261B0310L871
4644B4181A1498b449n689j290m065l686P428A1292J9682j067E252b4053j0318
4657c4371J4828E759J6731P22j0520a919j4241q635M763E52K5025R522j5990a0484
4672b9738M262f520H408K609k423R94J105A926a6389j2427R185G797K3695M56
4686C1948A0477a4094j0788M790h383C713J0854O734m423a023k0283m811i342
4700A5156J0426j1159e167r584M028d404n32k084D73J6301R078j1879a2525j8896
4714c1421N392a787B0586N628r408B764i418r532m353P518D652K1527M438A2522
4729a3491j1994R039A012Q823k841B723J555K084f94j3991o012g600A6656J4010
4743C0666r726d657k0622j900a3155D649J2793N102l865D332a6550j4301N336
4756b5515a433B3992P342j4054d028j2060P82N229L275b788G099J1799J525E469
4771a6626j0769J0284E827J7359k23H035i635j0460L93i535F324J4213L499j1608
4785A2428h150j5453N57h253I080Q964j503p092H97h228q638l068P824E200J6674
4800B1874M159j2047f396j5683j916a1936F430J4202J693A0008h945j3203J819
4813b0329d984A2575P499n622A850h826m529N09M372f6A1002Q108k200C136a4562
4829b4258N058b509A5774R839l712F159a3923j3377K361f619A6191J1583p611
4842B0163A89a7090l905Q471d56H426M390M46m886b610j2626m872Q869F769J4359
4857B1128P55I697f396j1183k241O434H0J6009R555n957a436k2699o921J4757
4871a6299H247J5712k684F526g059n502P44K995c146F723J0192J936G894i784
4886b1242K863d378A0770P989j360H119f226j3792m818J0309F807J8074P31H643
4901a2440r745N590c524F964M678R30k156C086h459q536K672f27A3984M659p636
4916A1007a725r725l909J460f710F494J3786L224I287a4915j5885O237a051B0971
4931B6182j1055b4r266l170p84K092b401A1537R703l916A177a4937m656P844B87
4947H997L393j215D471g696j1479L75b333A9584Q871j3003i154j6050L451e447
4962I086N337l88j899n395f042j5344n339J2820I840J6800j891H472h389q111
4976a6500k01L758d928H557J3059P77E676a7332r473J3378A0824J3479p475b040
4991a4838N75f772a202B180N901P448j60A617a8612j0407R409C017J9306M700
5005B7023q929C389a0953j1107l204R784E980K0610M239A4360a0097j3727M753
5018a9071d177G271K202k987k877D91e297n616J440A565J2862K758F020a0530
5033a9580M041c079I583Q035J896n726g79j8506j0977O801f41B3358Q551j1020
5047B0889B12a6041m804M286h107A700R633N745k734C176i662n694M994B73Q533
5062H806J484m880b347o609j838N355E785J0118P66D950a2321j0832L352d762
5077A2334R684r39r587b760j3896p378L820e664A2213J1247j414A0159d993j1246
5091a6239l465M893c021A0673Q169l495A712a2439l918g410F587P605l714d32
5106a0038k698M405D21R351O266j002E190i711j1552r01J0703E054J3960N328
5120B4342n521D089a4333j3101P54a0446A2451J5111j933I625h635r510J996g156
5135B872O988J931m440a876q688j239c820G790N950m191a389j0205l803L212c584
5151H374J1156L515r570f836j9007m327J4360G652J7378K003j1351g96j3794o963
5165b1553K064h534G055J1746L57G928f535p716K350c864C646M100N27l311b273
5181a0514k351d457A0588R840m537a010j6677m871Q586D01J1969N705p42p658
5195I675d201j4701o080Q756B764J6734L734r141E20i495m442K9M518F39J1974
5210A2613N469p183e010j1975J937a705A1212K341F023c713n364n57K437a733
5225G182Q506P04E616a0886j0322L386d135I926O927q61o015A74a2140r596J219
5240b0517e750A4329J0923o217A434a3769l430O743a036F018M100R52m343c456
5255a3665j156c923A1172O835o545b484j0415j564M872b600E299Q388M218o142
5269A1763e036j7073l564a1416A0453J3685k434H229e949q314j889L554c314I655
5284A9201k118B822a3602o207P819B203R778Q58n159H36f059o157j473f169H622
5300B0493j628C208a4947p101P857I74J1871L466l685D691e840r862l377P812
5314a1267D800J3813J416H694f501q662J065f907A445P184M621r07C546i691q621
5329a8312L802A33J4729M031q746c799r577j056N648b52H250N503r28D063h543
5345a7000K131c394I738O610k654D680e604p320j449N681B408J1043L755p009
5359A0197c518j1537j880Q158C780R309J539o086b024r617l650M972E93J0747
5373A1340M192m591F51i379m937K153c711G446Q199k55E666h472r404J853d403
5389I060P093k400D543f075p478j046O547C808J0761K750q132d709j0580o95g602
5405C910Q313K021m438D12a0476o713K917a752A2940O748o030e66j2657l681N745
5420a1159h85H896N517j095D938g506r329P96d697I827P782l507B992h040n653
5435a3693Q33O105B750R517M204n601b779j3012k788h798F313R947o23F746c974
5451a1570k140L898g85A0032O182l470G24a2086m926N823F62J0198L467l795A960
5467g779o690M32e313G567R092r96E418g216p377J187e528D411P568J600n866
5482G713c602j0259k063g742E293R074l27F088c616o501j696L214i49H984O822
5497A5806k473A250a3010n990O840B135J1569K554n843A099g789o155r05O574
5511h275D543J1535J633G365g620q588K955b844G013M478r07m595a538q551m716
5526a4805M075A905J2563K738G772f561q639J536e276D061O729K880k712A327
5541a2121q491M045g95A5832N672p661B33i717k742K073M588A145Q482N081m400
5556A0308b980j2791j665f160H760O958m646H36f963k329J552L601A951P455M008
5571A3414m727d068j2070j750g305G869R612q46H130b560q897m824J455e980G331
5587A7297m41F061g750p445K565c503E880N054l50n128b637p301j845e858D479
5603A1810j145B068g335l936K979a066F543N130M25n942e151j1337l546Q188C959
5619A7912L530q174f12j1652m517L473d204F603P511K3F281e225p969J73e275
5635D652O346j53D834c565o109j88c585E577N941j969D90i856m869L530a243A0027
5652A7246m47H089e791j2283l337Q397B544J3452L728o860G09i942m795J994e260
5668D881Q273J285G209d890q697N12d353E891M681k907C25f152k247K971A363
5684H880L959l124b02j1613o259L348c375I742Q173l40q420c751j1275l984N864
5699a3146i8A2709N059n071A365i187m624K416d018D763O335O25n780c151o581
5714i732N62b143E819K815m133c087n852r35M392A990P935M619k172B923i671
5730a8142J188f501G082R236O30p491b131j0381m375M210a416A0736N937l799
5744A2874B369h133m541K309c820C201M849P80m167b810n971N73c61I168L559
5759A2727n623c901q858j505N519B98Q755N737k27F783f391j1197j429h744F828
5775A7418k24G955c795q224k495L498b550G924P134j338C879h133n789L937c45
5791G522J674m100a347n665k599K436F26R997N339m439a073j2553l953O516F15
5807A0168L660k275D805d651q864k986O548C642J2099K053H702d512q519k0O100
5822f951I08O302L103j459B292f531n143L242A386Q951J467D926d562n986q7M454
5838f181D85O905M704q31C326h062p295K410b162I417N136l177C376e079n638
5853a0717j224M243A517R590L569n793c021r446o99e836C394N339j83l618d66
5869f057l867J160a116I190N791l828b45j0989l300N426E76P908L229k079C227
5885e487p024p54e984E601Q146p46D175f571n815J516c766D844O180R98n242b599
5902a1284k382O141C408Q934J503o404b638q385k745M125e17I381N127l077A203
5918a0046n196M022i58I032M170l144B258e790m588J154b804E466N498r49B616
5934f967n999J449c478F854O569q97D450f345p447J64f001D713P803J094n736
5949G874a529q437l283L627c86I495M791l391A305h402l877L283a692D843K671
5964G514j550A340d153l764O34a378G062N165k429F39i379m367L795h65H018M552
5980A2570j350D830c971p494k047N221A927R182K726n222a170q751l610K941b908
5996F012N950m02D952c890n382J592i75E795K029l351a558n136j916K215d09G088
6013A2247j336B441h702o854K058c808G372O494r85E742d000q018k363N113A559
6029A2508M648m722A232i685m705L068c257D833M204j396A731e096l266K811A555
6045H232J665m517b377o687k418L001h81H355O283j391C584i108p405L055b066
6061I785N273l063C685e339o827k520L664a296A0043O052l532A943g871k525M915
6076e481A322L699m85A898a241l363k448J050C40Q650M332m454b220r756j749
6091a3725O549B331O759J637k950A475f552o248O0d639G506Q410r21F243d124
6107a0351q00K751c540B687N542J228D288d485n138L183B693P368l52B607e238
6123h773J168L547C77M940M007l35B412g560n874L381F04J0332K922n303e47p698
6139h245l902J83M582A229R649N120l578A700i090l664N071A322O413L85C383
6155c019m729j054L547A623O969K593l906a197p725k264M187H22O924K597k927
6170G416e3q235m472K757f41A0292N987k799C694g411o589O81O466A951O674J469
6186A0094m204a791o346j151d178C953O025J89D483c666o108p93M723A962O550
6201H512J864l916h65o631k094L723A659P223K420m126a781r026l641L906a217
6217H151M313k324C498c490m164M4c742B136N074J118D003c801o256l54d184D701
6234A0664j00D935b581n587j157L479D77N933K066l380a944o268j499M370B397
6250I103K313l058A401f185m584Q30c883D002N322n39B992d361m572P84b521D952
6267A0202q1D063d902o628k02e299C615N974J50m745a479m760j349K574F03O143
6283F746L121k724g69q480l420L818a18H067L278k716A878e413m211J191a942
6299F222M579k306D92g839l559L159a083F048L962l56m640b389o897k261M608
6314f939A981P475Q98D707c340n349k52M207A761O204L135k453F64h550m170M158
6330h562A107Q052J067D633b604m360l33K399g85D364M423L58C453e831o492J362
6346a0961b684F738M476k164B962c381m133p02L461B092O678J813E202d259o720
6361a0979M18c860C754M125n28l501g18m475k732J295f61F867L775l147f33p282
6377g915j716L898F73N299K451j006B796d368n819l20c949E360N299k188A056
6393e919k298K236a690B631L575J624k074c60p145k874M055B440P085P06D984
6409b278n270j346K391a241E156M234j026A573f768m156K988c3G148K381k873
6424F656A254c928l318j49L567B611N798R79D152d121n646N96b930D549M574n56
6440H567C555c577n969j521M469B284Q035K147n042a283o859j452L948E98N094
6455E692K136j687A192d980m066Q83b204E308M295j686A455e407l179K026h24
6471E129K852j849D23f064l358K150d66G174M143j695C067d850n201k40M369F30
6488F360K234k109A126d798l323J376a147E519L613j837A054e610k816K451c77
6504D580J411k202b17l472j194J623H28M585K295k146f07p068l746J947b914E010
6521A0640J030m007A62g565l827K538i93G329L372l533e97o750j963L063f08D505
6538G289p23B707b513l597O21a081C957J753B696b839m212l12c530B615O212L401
6554A2228j779B729g727p427O08e964E206O975p81D885b973n085p49L308F48O144
6570F792L091k211A040e884k916K298a346C021J402j233E71a731r47a261B581
6586F398M50B087e945o253j34f115B910P217K357k767C239d409n422j80d835C080
6603H630L49D399a891m764j789J382b716C314M899P84m350a980m000J042g36B251
6620A502a737k576P1a928A331L694L431J339l375a610q601l639L864a334F706
6636I972j803C286b698n286k324L113A161R116L720m713f00q246j941L638a646
6652B301J934M87j085I48a867k58A058L787J04c12p243l992K372b449D802M765
6668I567J301k440B195f148o081J050b496H495N649l503A017h026l730J929d792
6684A088N536L456p59C699c841m622J362a801B622J60d26k959j08a026B476L226
6700E702K075j90C486c744o817j689N511B700P311O14D883b977n547r55L311b69
6717F036M297o2m958b511o522j901L490a098D544K411j121B471h52j470R72A081
6734B868o64a230m400k289J789h07E311L456r48B969b871l949j77L358A785M820
6750F605J910k306B84f693m280R48c860D320N859O37m396b21n511k025J656a950
6767B323J950j476h62l070L65A73M582K128j790F01c898k513J00K655H01M748
6783E549K323k354a013o958k389M142B153P363K101l673I16f015m133K14M540
6798e394A676O123J495l952a199m596Oa850B735K113j025D92c401k736P6b517
6815C230M714L70C655c175m648K52b822C409M308L00C938b780o037j819L894A023
6832G858K280l092A062d293k495O26b762A787L741N70B635b964l682J121b96E169
6849G118k248B68d054k235M18b690B277M101M49B724c609m040R57a584D012K893
6865F905m44k885e08m210k718R33a538D857L497k068C66e083j531K443h1C216
6882D780m65A564b969l761R3a825D709L483j962G86d027j610J279a861A020L175
6898D195K034j135g1o296k691L614A925N564J05C122b192l145l52J782e43C762
6915G164l55A654e155l441K659E39N428J113k943a63l575k159j35K698B041N405
6931G446J378m357c125n443K68c107B980L412k92k910i53l733j474K216A409N214
6947F623J288C892b716m667j16c696A087L605J308j297I40d076l250J096e64F128
6964I201k770a01n928k321K010a738C346L562N11l105a384m814q39c305B300L402
6980E702r15F61c739k195Q43a825B393L614J038k444e18m886j650K814A067M432
6996E499Q61l150a884m119j047K658H23N064K462j868A292d487l320O77c171A801
7013E118J90B537a327k766J30h84C383K779m62A945c141l738l67L260A092M118
7029E210R78k561g85l729p53K494A669L882J099k620a317n280k367K337h04E379
7046H592j208C036a919l211j70K630A467L126J06A072d383l556J149a424D749
7062H212j003C263a371l483j057J542d68C908J878k242b026m768m33b628C825
7078H098J41l388a71m776k868L05c478B404M057p03A017d124j584K844B000L590
7094E590P92j859I91c515l850j038L349A287N494Q91l762a362k961O94g56B341
7111D316J85k182b165m866k038L061G09O000J587l119B70c111p22J332c22B279
7128D035o15d06n344k824K421D34O633K529k296B470b324l156q38J609h27C459
7145E093B502b811l831Q07i34D812K939q78l379h71l679j900J077a353C291K040
7161E331k064a341l467K41a031C414K916L43k502f26n680l738Q66c479C769M473
7177H242p61C081a593k249M56a163A842K714Q34k634b601m934r39M203B030M112
7193F142p9l019a87j918n93N92a52B530J562j756b752n086r17d089C256N501J015
7210I772l080A720c305l512o73L032A201M820L40A724d282k917J985b64D215J950
7226F165o07k381b72l759k290J149h60C604J120A743b700k189J812A241L894J768
7242F903j020B506b600n006k246K591e45F282K747k896D39d234j087K083A00K927
7258C027J557k95A609b675l740n59L321A701L881K72k790d92j981K04d99A551
7275B773n90b21l560k708L68b127C778M422L04m026a335m568j267K277h25C088
7292E231o82A425b933l162J88b038C600L957j77C368b042l722k15K490A12K774
7308B886P48j477i36k831l69a096C818L438q37A485d468l529O08c423A571M048
7324E619J616j672G73d767k996J928B91N955J901l147h42m701j386J699a713B469
7341E739N65k955a843l849M95g30D142J367k614a661l183n55J717e51C051L203
7357F254N39l306b574m780j0b543C398L001j258A468b066j960m33J252b02C720
7374F153j178D59d333j824K026a67B977P87j036F80a787j845j7i98C118K731r70
7391D879F83c770j786J358i80B059J949M54j450c84l789j638J845D40L952R65
7407E357k265f42k894j075R86h60C042K962l33A509d249l051J876A0M987J504
7423F501k254B83c199k033J72b514A894L915P30B943b971l883L85b433B347K993
7439E340K92j922B22c799k214J471C73N164J340C026c159l794R32a483C318K575
7455E893r4k501g54m502k366J721d47E385K206k675c12m038r06J630g63B389K718
7472E107R13k299a546m924q82c400B314L003j266A73b541k57a202G58J572R37
7488C267k25H09c210l333K16b249C364L424l99l159f93k912j281O18a508B603
7505E729j76A475c993l167J065a880B716K624J1k121D31b227j262Q29d93A458
7522A620a81k326q26J315A055L046J621n70B178b373m083j281K728D82N136J689
7538G307k660f21m499j536K233A45M569K565q59B492b687l957n92K580b92C393
7555D626j363F39a315r6C61K206P85j600a707l511j478J637g92D194L361l10C323
7573b255m136k97c127B117L852K43l071a534m173j925J344a892C697M122L99l450
7589D768c82l788o88J840e88F07B22i39j027j14e42B310K844R39k216f52m363
7606e015j676J618a349B475K364N4B401a744l854r62c280B806N159R78l624e56
7623e509k313N63K883a51C805J888j280A082a443J91A060J761q24h34k693r79
7639d506Q85J602A01K695K566L01B626b633l812Q66f63D750K027k150e7m550k741
7656g348k09K842F78N776L102j632B841b478k360N31J841a022b52C29J75b20j246
7673a466j10G87L488J593k129a162m098p12K655C09K604P60q46D42b945k586O18
7690d913c37E689L463j532B288c548l363n10J467K784G92M001J827j833D09c225
7707c266a53B957M37I11b297j997QJ705A92K954J823p13H97b994j640J941A263
7725D348L55B351a381l527k127M12c047B751N262J451l246C48d565j566J702a443
7742A229J255n22d2k588j122J798A988L328J55B329a801k407K12J992B26J555
7758A781P24o01b43k923j440J713A687M542J411k718a51m557k295N44K764B85
7775C960J529j524D24b614m04i41A911J277q56D01a708j479n52Q00d16B861J895
7792D756j011D69b787q78a789A227J986Q2A444a423k744j498J049h40D030L164
7808G194n59B823a890k831M4K122A84K109O48r78d88k799j186J724A210L795J033
7825F038k542i65l655p43K270D47K861N91j711h31k459o85J766A349L247J203
7841E799j849b41m266j973J228a438B746K234o04A649a654k143J73a237B246K549
7857D795l05A285c031k699Q66a188B705J863q18A376a090j608m36J187D82K619
7873C101R26j895a611k988j60b159A443K355M08j278F91a917k077j69a557B410
7890D936j053gl635q30K096E56J908M49l34r68d98k733j398J495H15L610M48B017
7909a808k025M60a484F43J911J284m09F00c369k358J544E32M196Q72B759a242
7926c537j06J171h14A390K108O44j974a957l209L62a021C369J857j485E76b413
7943d018l3J746H69L284J145k187a372l547P7a485B351J811q07A002a485j921
7959c406p92J096i6C557K039j275C71c360j374J586c09B178J161n69F65b289k043
7976d332M91f20C413K055j230F93b643j375O80a519E92J846O98j205i46k696l39
7993c981a264B712K454m87A855a696k490q75J131a055B639K407o24A018b730j399
8009d129J813A005K276J26j630d49k238j427J01a885A756K818R3A728a707j648
8025c355J009A96K121O75q99C2b815k324j69b359B571L866K38C332a108k833j60
8042d101J493f26A042J235K2E79b119j840Q31B70L749J352j747C55b346j070N25
8059b891J348B23J509K52E42a999j468J134A128L723J287j829C51c618k364N8
8075e924K141a74C419J859q27A375b098j591J001A31K805J025j333c55l128j631
8091e114Q71a374B059K034k86A730f99j187O97F42J737L17I38b171k968j031J939
8108d231h5D509K754m59l350a216l771j048K120b1C356Q56B105a200k558k49J997
8125b010A060K730J139r78A258a973j999L77a438F73M91a64j737m65J100A048
8142C438J649N9j949h35m416k402J413a835C056K445p20A959h83j690k93J145
8158a721D85K488J261j376g54l578j290J589h22A827J224m4p75j018A40b91C16
8176A398J2e85l131k107P38a683B526K863O55j329A733a992l220p33K643A187
8193D644k4A417b491k073M14a861A165K843J805m01B303b071l105K58b072F87
8210A334e8j549J7a66A618J499R87k1j869a711m155j590K422A18M545J290j877
8227D076F65b210j472K65a232B261L027L84B454b643l732n2K925A28K298Q97j60
8244C163p92I44g50n58c25A229J42g27l057j266J672B90L414J498n36j877Ec023
8263d889P86g51C305J712j918i61l428q68J674g77B265K328R86j400G13c284j841
8280e125J075a085A343M49F31f25j88g8A253J208Q22l84G51b440k616j79b575
8298A165K706J64j930f49k274p99J133B27L402J922j074G75c479k391O38b377
8315A137K557O87j016I80a408j207P77B14J554k99e47k161q25J031c99B016J664
8332C680L22j563e15k876r01J792A066K804M45B097a196k688o89J312c45C085
8349E306l25B042b006k767P0b329F30J860N1A209d59j428k04g75A567K014N0A325
8368b011k340K69a569A727K068j37A628a277k188l80J864A190K664M85j908h84
8385c755p79J347c43B518J527n04A233a590j709L83g11A962J278p02B36b371j338
8402c709P71c93B389J466o82G22b020j446L74a175A228J718K51j382g08k306o01
8419c615J506G95K348M44j656e54k005n64Q57b89B020J509m48F20b627j579J293
8436b913B10K735N24j377g9j721p73m0R56G41K616J074j721i64l226l23b172I37
8455B793J14j208H7a613j063L66a23B794J380j629a183k958j88a873A103J843
8471B946K49r15G02a435j942l37a444B379K544q47C46c541j515J308a036A695
8488C636O24j076D21b755j446J524F01K426m04A4b382n17J232I9J506J077M79
8505C161q08a10l120j567J505C97L240M53A790a262j984m1J453D67K602J616m93
8522D192A315b576k486L25b117H12J616n2r72C02e94m27N02H21J240M4C63b240
8541c883M61a257A473J790K12j335a71k182p76J381A057K450K63A475a844k433
8557d277m06J450g12B178K290N49j573A93b877j133J381a73A541r5H7a364o78
8574b042M40f8B082J764M9A809a417k406p9a785H21J522k54E88a218j376l40J394
8592a540A373L134J242j701G9c971j859Q76b269G17K142P46r66E71a461m78d19
8610A894J251j178i55k525o39J215g72A190J313M40p18C84a667p49a113A552J981
8627C533l95D17c048k154K78K405I83L091J448q76A886a384k091J25a567D19R05
8644A324n86f76j263l40R65F33K098J246m69A512a103j978l04J446B47J643r3
8661A797B17a951j211R55D60L041J538p71A488a850k429p15J220a274A382J662
8677C044n3A473d25r86N81G12J495M64j040d81k489j497M14a598A701K119j95
8694C625A413i94q55P20E00J261J36q55f08j957j555P0a888A651K949O51j851
8711C400E91a711r87K92J184C43J232o9c76k468j132J563A187L274P02k026A27
8729b218p70L34R53c01A151O56H92a072j385N67E23K659J156q96A156a583k130
8746c713q09J067h05B183J395j130b75k036J81A0K278Q78p11F40a436j814q87
8763d137Q05h20B351J803o00A161a158p83P27A74J135M20l90a64k276j807K25
8780d022a295B536K166n50A406a224j059N85e02D78O31K6B43a349j502l5h86B084
8799D166L6j920c16k093j034L38a401I28J610k93I9b320p35a430A319J978J96
8816C493j317C26a439j406l57J047A57K145M31A299i34j210O05A83J715N93m52
8833B039G15a333k093q54J368B81L100J006j700a41k148j76a207E51J200M17n54
8850A614b5k002j354L06h42A916J604k96A209a042j438L5a147H76J468j35D18
8868a998j393P25a43B460J271o04A199a071j675l46J052G0K022P87j071d40j959
8885b399m36J264E47J875P36p97B44b157j310N71d89B136J109j037a22k054m32
8902b608J108D15J501N50o41A59a784j177L47h75A260J522KA323f83j650m81J112
8920a702D85K085N88j463i44k030q9a235A142J463m2A163e23j524n72P59a61A844
8939B909o43C22a811r50O94d00A381J063j13A020a080j705k25a468A149J939J21
8956C209A380a106j620R3a135H96J242o8G59i67j225J4i43I85J514L79q68A0b207
8976c622M05i71A905J723n25F95a896j151P85b43A719J081l77H58a258j700j98
8993c156a566H83J757j04A001g38p61K95b20I29Q91J09G11a458k237k94a924A513
9012D136K36j979d08k048o63P58e44A534J262m41A91b385j084J181A82K071N88
[...]
22111i4K9cH7OD6b3l7k9L7a2l3E2O8qE4a14%N0K8I1M1C6Aa09p8h6c4A17k1l1d3
22143a13N2GJ8Q4l7j6j9b5l6l5Ma4H1Q2j6Ga45J7N5A26j1k0D6h4r8L9f3G4J9L4
22173A27co5b6n4K4Ra2pA11C5Ff9k0L4G3J07l2C3g0p1K6b6E4J02k7fj04K4c6a
22204D2J5PA3b8n7ml8J8B6N0K2A6Aa36Mc9G8M7k7d0j03j0g1a1G4K0l3a8k0LKA
22237A5pQJ7j5g9m3KB7J10O7n2Gi4j08h4B1J08J2F8e8l4nA0O4M3jE7a7Pp7c0k9
22269e9K4E5J6A5c5n0Mk1H8L3M0E1a06j09M5d8F4M7qD0e7j8K0CJ9N6A7L3Eb3j10
22300a33O0J8A1J07L6p4e9j45a01F6NK4D1a4j42kd5B6J3N2A5K9Rb6Q%k8A3K8L4
22330G5dnj02L7A2J36J3p0e4m4n6L5B7O9j4j0b2m8b6iD2A5QK7B5c5k6j8k1b7I1
22362A07QB4g7m4L6B3Q2L3D7e6o9ob6D1O9K8D2a9B0a4A7b7j0B9M2J6f7j3m9N4
22392g5eA07N1m8a04j5M6a4H1N3n6c8m9K3J2A5P8MB5J3a9j3l4j0K4B1K1N0B8f4
22423a06k0C1R2N4F8f3j12j1g4C6O0qIc2a0j9m3FK3J2OJ6e8Lm7L7BN4M8l3a3o1
22455g4rb4A02J4l6Bh1l8d0AQ8j2l4jcj5j7Pmj9C8J9M8A1a06j2e7D0R9j6l7g7
22488a49J9a2A1R4l6b6@e0a2Db8C2M1k9J1b6p5l2e7D7O6K7o3f3n9k1aA48K7p8
22518I7a4j12rN3C2O1ND0j2Pd0p4J7A6kR8MIa13q2g3B0P9L7k6c2q3L5k0E2N7m2
22550F7B6i0n5O7GM4K0L9a3Aa7l6n8gmD4Q2B1e8o5O1mA33M6k6Ga18J1N3D6K3K3
22582I2k0c9%J0C3A1K4A3Q4k6A8b0m6j7fF5Q8F5l2a4q3QB0N7L9D6c7n3Ka6F6k2
22614D4PFCK8qa8m6J9D0Q0O4G5f6n6J0hH7J5j8aq1j9a8DN1QC0a0lk7Jk4K2B7K7
22649E4K5l3Bi8K1C4O5O3l6b8j20l6g6B4J63q7j0b5q3b1j0H2C3M3B7co5b5l0K
22679e3eI6Q1o0Fa36j6a8E1R2Pa6q5l9M1C2J25o6m1hm5ja1BM4J9gB8J0d3o3L7
22711f9c0A14L8k9b7n4r5e7G4M7k8B4d1p1L2a6G3j1B9j2c5Rpn@e0H5l4K5C6b5
22743e3k5B4J06n1Ca42j3N1FR3K6F1A6e0K3j0f%C1oDa8B3a6j00N1J4H7M4l8d0
22775i4k7L6B9P1l6a1p4k8a1B1J7M4bD3hn9J0l2K1B2oN9KA2e8n8a8I8O5KC9a14
22808b09f7b0E0M4D0A4a6m0J7B0LmmJ9hl9p8J9cF8R9m2A2i9m9P0a6A28jE6h7o0
22840a47P2L4G1J4K9m2a8n0J0l8a9B6K2%j9j1f3k6OH5K3N5k3d5j17K9d1G4L5D2
22871b2m6lbF5mC0J4im1Rn4M5Qa6I5M7F4a5j04L7A8O2Oj1d9p1k8O7H8j8JE%c4
22906a1A3e7B6bE8j6Ld5o8J0b1D8P2L7bp0l1J2C0OK8hj8p8c5a1C4N5m1J3b3rr
22939d1Ll1a3E7L1rIc9q1e9E1L9MA8i3l0L1L0A0O9lgk0j5a7A0b8D2A6N0k8Dg7
22973a45f1FR0L5C1e2n2M4J0F6K1ma8m9o4e9@I5m3K3j1@d9a8p4c9B2M3J2Fb5o9
23005i4L6A9J24KE4A6i0l3L8@G3N1If5a9m5K8D0N0D4j4J4@e5Pm6A8N2M1j3bq2
23037h4j0a8H4L4k0l6g3k9K3A2kP4j3a7kn4J7K3A7PnJ0FJa16M2b7D4L5L2ap3l9
23070a13c8C2K2M4m0b3o4c5jJ2G1j9iA9dC7c7m5c1gC4JOd3m6KC3NJ9B8d5m1K0
23103f6K4A9M2A1L1A1a7C1d2a6k3J4I0K7C6hKr4d6H3M0n6k6g4n4K1E9M3j3m2f
23135c4qa3IJM5hA8J1a6q9J0fF1M7k7C7a75M1N6B6R3l1A6g1n9d4A8O2j3K1B6d7
23168c8J6l8J7F6J9B3ao7jOa8D9M0j4C2a16k5l2D0Q3kD5A5e1q5c7E7M5D9K8b2
23200i0Ia07d3CM4K0oc0j8k2n1C1J3N4B6e8m5j9b9B9K1Rb5Lfp4E0k3a7D6Ff1Q
23233e3j4j2b3AJ07K4D5f1l4M2J6bC0oj1e7J8a9B8N4j0k0B1a7Aa6Lm2OC2L2N1
23265A15b1Nqk1E0A7J08b7Lr0M1dD3Jj8L2b2MB2c0A8fA6M9Ib0l4j7J7G6N0l4l0
23298F2c0q7N2iH7m0Qd4k0j2K9C6K0O3A1g0J9l6Ka9k2G7M5NA9g5j6M5B9J27j2
23329A44C2g8Ql3c8A6O5J2@b9n1L1aB9O0j3A2e0m7k2J9aC2M5M5bn8l9K6B8K7P6
23361A31D1Fa05K3C3J4K1%B0Hgm4A3a2fB5A1L4a0j9BJ0DQ5K8C7a2p2l6d2cC9n
23394C4A3h9M3D5K0FeC9A6J2a1l6k9K3Qb1F3J0C6d8n0M6b6G9k0a2No3m0M9B1B
23427E7k8Kb9jk3B6a9F3DQ4b7m5j1J6BJ28k2k1c9r3e5K1C9BO0f9K0p1e5a5E7J6
23459G3K7j0A5e6k6b1j6B2J0Rj2g9Mc7BP0L9D4J1a9j29f5B2M3k3k%h4b4j7J2D2
23492E5rk1e0l1L1j0K3F2L2C9c8n9J4d0D0P4jB3h5M1p@D9O5A2K6Nc3J2j0DgA02
23526E6B8b9ml6J9A00m7M3a3m9o2e3iE9B0Jbk3k4j0D8J8cB5jbm0%a9AJ8JM0nb3
23562g1QK2E5K0J8m5c4k5B2PJ0A5lOb6k8b1nngB0bam9k9MA3PL4A7Ah0lc5J3F9
23599A00B1c0l5jK8C5J5j2Kodq4pGL8rP7A3fp0J6oCM3K5J0d0J1l5J4A3L3Rj1c9
23635e9J1j5b4A4L6k0anj9m8b7C9K0j8c4k3l1L0aA09m6MA3el6J9B0J1P3B5a2l
23667a5k7Kj6A0J02E6A8f6J8j10CdH1B5b5p5d4k0A6JLK1c4Ie3B8eEa1D9k0j3H
23701f0k0aD6j2L3B6d8n4d4k6IN9B5Ca9%kB5jCJ0ip6L8k8iGjP5l8K2d7k3lJ6E6
23738B5c6Bc0n2a2l3cA2M4k2j5d9qfC0oL5k8L4c4j2bC1A2K8l@b5l3a3A8K2j9J4
23772C5OId0OBKM0B2ej7rlm7A6O5j8K0a5qn6a1jG1k3B3b8o0L9AK8M1lC2Gf2a0
23809d8B3M1j9qj5b4n7c5MD2N8m3B0b7l1b1A9J7L2B2a0n1j5b1B7K6L4LC2g1c0
23841e4J7J4GL8k0b9o7b7j8E2M7k4do5Ko9e7a4E1J1C0c6l7GbB1L6llibp8ak7C4
23877C1M1k9b4o7lB7DQ5B4M7b1j7B3d5J0D0J0j1j3a5j0Mp4c2A5J3a5JB8fA0J6
23909B6A0O2j4A6g3k9a6AL2HO%d2jBL1JP2D8b2l0k9K0b9F3jJ4B2c4l7K2HRO7L6
23944A20COa02LAM7K2C3Pc0Id1a4dG7J9B4a6q8K0k7FO4j3j0Gg8k2b6C8BP0CJ7
23978B0d9m2L8EP0J7m4c3J6n4J2J8C9O2A4Pen8a2C1NN5C2@b5cn2b5D1A2na2j8
24011c0k2K2A3a5B7j3a4Ll5b2o5a1E2KJa7j3Qm6ej7B9K9B2b2k5QA6DJ5J1Cbj0
24045a2n6J2B3J7K0Ga0Fc9%HK8b4C7Ch0L9k1B7O5kk1A2c0l4Rj9b0F4k4L2c7o6
24078a03c9j7C1K0J0@HBg3c5GK8Nb0C5c4j4j4B0J1K2J5j8b3p6b4j6E7M7n0enn9
24111f9J7C4qK9A8Ec5bq1cC5K2j5d1rp4d1B5J7RNB4A2f8c4bnF1k7A5b8%nk9C0
24147E4j2rekl2a9B6L4k6Mj3h2L8RB0gD8j9M7a9em2A3MJ7%oCc7OA7jLQM5a6mk9
24185d9K3J1dB6Ba5lCd9MA2J5N9C9dl4a8A0J1L7eB7b1m1Ra7B0J2Prpa08b7bHK3
24221C1M9J0C6cq2K4dH9k0k0A7ji4c4J5D0A3J5%Ag6c7aB6O8k8fk4m0L0iFR2BM1
24256D3c6ndB1N2j2J0a9Gb4rB8iB1mCdJl9%a4FJ1K4Bdj7j4A8J1A1N3ap1j7ij2
24293b1B3O3oB5@b7AhC7K5B7j1d1l4J2A9a9E4A8N8d3Gc1J2B0M5j3k4Ha9ol9c2
24327gB6K1A2dB9d5BJ3K2L8C0c2l1J1RiB2L4K2e7a5rJ0GO2k4ebp3c6RA8a7F1B9
24363A8g0c5a7lA1O6j7Ac9J0n0FJ3K2kJ3b9pA3J2HL3A3bB7d8J9C3OlJ0j1A4a2
24398i6b7fB4L1a4Id0qG2b7B1L1k2mf0K7QqC9EJ6K2b5Ac9B4oK5%Ca0A9e6KcE0
24435H5D2b6j7JOEL1NA0fnB1d0MA4aF5k2A4i0d0a3kB0oK0gm0Oa0E4rj8J4a2bk8
24472c0j8b2A04D6K0l2hl8hA0M2loA1f8j7K0c2E5A6J5a2l4J0k8G4AK7Na0p1c3
24505d1a2C3J0J5a0m5b0k1cD6K0j9fn0J3A9CM5PA7EJ0d7J3a%B3OH@f4em8Na2I
24542C6Ca9k9J2k3a8C9a3C0cm5IJ0b7E2HL1b4k2J4LA9PK5NHa2kk0J0C2CO7A0A
24578d5a7l1F2kA5Od4j7Df5a1G9l2Aim6J6a5B0N3k2%a0n4a4q8FK5J3@D2c5Qk3
24612e0C0Mod1K0oPk5D0K5Ol2b0j4%k2A9Ia2C5A2e4RN@E2jA5Ga0j9qEN0j3e3a
24650B0b1Jj8JG7BM7le0oJ6j5iD3IAen5a5l9C9L0Edk2j8k0a5C4K9lk6A7a01c5
24686coA3K6J7a3C1e3aj5k9D0A5b1l4k5Lb3A5M1k1I%Le6B3jM8k3hGf2k5c4A8J5
24721C3A1PIa8j4j0B7K3A9K2d6a4l0@B1K9J6j9Ad2j5MA5QkKrc3l7GJ9j0OHK2a9
24758b4k0J4D0A2M0B2cj4Jbj5DM0oDb9j8J7a5B7N3C9Af2J7a5C7@F1a7B0a2C8A4
24793b8F0B3L9j5B1hk4a3B5jJ5La8jA8b0B1cC1mBPf2K2JC9bB9a3m0K6LiB0N2A6
24830B6a7No4c2A7njK3Ig8L5eB3L3j9JAc5m0K7bF1nB2NBg3b8C4oK3Rk1c8%j9E5
24868B7K1mf4a7k2nJ6G4k7j2A2f0lJ8A6OL0k2Aa4m2J9B2a9I4IJ2j0f2B5A1LJ2
24901B6P4gj7j0k1HPK0gJm4a0l4b0CN1KfmC7a5MB3M3b0hA8flm0C3b3kD7a2Ac0
24939c8Na6A0L1L3fKj5AJ1OL1EJ8b1j7B6a6rj5a4oB1b5mCK7a3Da4Eb3k7a5k2A3
24976E2J8B4d3k3J8kG8K1oC4e7OB3@b6fE0A9cm9C2b9A5M6B9Ga01M1k2c5B7N5k2
25009F0Eg9oJ6a1eA9L7Ac2j6a1Ia7G9k3b4Pjl0C0j0LHL3a9kpILJ4K6rd2J2Bb1
25047GMK8qBiaAc6B4LCJb4l2K4cC4MNAd0Ol7a1E8A9lBNlLAJ3a4l8B1b6B3iA2a
25089dC2Na8Jm7J4na4E6rMd0a3C4a8B3oOJ2J2c9kK0l6A1nJ6L2e6n1d6b0B8J9B3
25125A9c8C4a7fC9qJA2c8l1B2cA1Jc1@Gh0b6cDK8K3Ldk2jKD7QPB7a8roJ2A9dB
25165c8kk1qb9a4B7M6B5Ab1l6K0JE5EK9K0b1j5J6OKC5HJ3b1k0A0K2A0N6FJ1dk7
25200c1B1a0dkG3B3a3j3a2A8L5CL2DeB5dk5k3C9%j2eA3hlk8j9a1H7l2d7k8b8k
25235c0A5L8j1B1c0jk4K4C7Ja8C9hB7d1j1Cb9A04m9A2@A9a5l4C5EM3k1b4il9G
25269B3J3Pj1a6j8j6b1B4b1A3RcFd6b1C7ij5eA3J1hrk7C6A1L7d7MnJ2cA4iE1@
25306bBc5E6d3b1G5e3B5d2J7pJ0B8K1lB1a4l0l0A5iF0k9b2k1a9pB5J9a5D@a9B
25341e2J8bB4Oa6Nl3j1lC5J3N3k7l6a7j7dA3%N1B6a7k6PA7PA0mCc1j6j1K4B1c1
25377E4k2mNc0l2EO2J6l6gloj1gD6a8C8do7K9A8bA5K8K6CK1A1fol6B6pK1b7gm
25414a1noA6L0kh1c1Ia0A4jL0eo3Aa5LIb2A1c2dC5Ba9o6A3EL3A9co1Mc0D1A4J2
25451B6b1bk5j2a9Dd0DL5A0Pa3j8k2gB3J1L5k6b7k5Ec4D8M0A1b5Ad6a5NA5K2A6
25486b9j2hA2Lb2D3eDd5k5Qa2F8k6A6a9k8b2k9D0eC1K7e8J9o8d4a3DL1lfKaq4
25521h5gIL8aA9oa3m2b4lD9j6a7k1k4cl3C4J7J1Fb5l8fKl2E7A2d5C4IOa2A9f0
25557B9Da9rMq2B5L1B4Oc3J3o3a1nC0APMNoJ7b3J0k7mGJ7K0b6QJA0O1l3A9Dc7
25595cJD1j1Md3J8k2b0j5J3PB0DLK8e3J8J2a0C1L4A3a2l9lb2B6O8k0c6Qm3c0n
25629c5B7%J6Gd7a9A3c0k6F1k4J9b6Ml0J8E4j4A5OA0f9k9b3AN4BJ1d9j7lL4E5
25663fG6B9gA0e4ck4CbqC8e2b3n2BM2J5A0a6kq4b5OF3A4M2a8j9%J0a1ak2IK4N
25699C8c8crcA4J2kb7j4J0bAM7A3nb9J3C3dC6b2gk2JJ0mhIJ5bA5L7k5b4lRj5E8
25738D6k2ob5j8OHL5a4D6b2j8gj6D8c8AK7J2Ca8n3a3EP0K2l5a8n7Dh2GJ9j2J7
25772C1a9m2J8aBM1cj5qRk7j1K5dj1G9j2dm4dA6K7O6m6A5g6c6bB8PPN@em2a9C2
25810G1B9ne1glk0a5C5BL5c6Oj1a8BK1J1M0B1%b3gC0R2C6Pd3a6Gb7DJ4L1k4J7
25845D2nK0a6j3m1greA8Ldo8a4FM3A8e3k7B6a6j2A6M4oK1k3d1B1d6a8l6A3cA3
25880a3j5j1A8K1j3J7j2d1l0c1oCM4bj4jn6C8Da0j4H1A7K3a8B2h4b2C3j5K0in8
25913f7L2m5c4E3k6J2a6j6j3J9j5F6GJ2b6ra4l3J2i%B8Ia9j4ohD1A0M7Hd5J7l1
25947e9B2J4Cal2pa5C8boC2A1O9cA2a7Jk1NJ3lB9b3A2%g@a7C7Ea8j6jB6a8D5H
25985e4A0d5cC6f9A8J5J8A4c5m5K0a7AJ2M3a7k6dk2B5K5e7F0Ghk9B1gC9J6B4J2
26018C6f8LDJ6b2bF4Ib5A6a2k9BM0j1b7l9rK6a5lC0j2b1j0k4ek9DK1JJb0j0A0
26054d7H4A5K2j1en3pL1a7F1j3Kb2rqJ4@E2b9j0C1cm5F8a9l3hj4H5Ga7q5a6C1
26089A5cD6a5Ab5Kbk3D9A4b6PMj9a6AM9k1OEb0Fe4K1C6L2j7A4a4m2J0A8qBJ0b0
26126d9QA3L3A3d1J7Bd9D2d8cA0b7C3%j1c5pGb8H8B9rb8k2k8L6G8BOJ4a0k4dI
26162B5a7gj8Hd0EJ7b4B2lM1j5Dh%B2JN8j6dp6K2B9hA0J4MCa5k3D1Ec3lDNJ2b1
26201d6A0lN8J8b0k0l9K8AJ7apoj7A9Rj2Jpb5bA9lBe8pdD4Jm@gm2RC3Ab0%j7k
26241c9RLB9A1J5a4MA4Jekj9GJ6kbl3MNA7L4L5l7e6b7Jk6E8jbrj2k5a0A4lJ2H
26280Hd7J1J1B2AM2@C7je7j2a2B5KL6A7a2n7Nb2D9j3O4b3j2J3k6NE5c9C6DLel2
26315c7rA7J4K8lA0c7o8N0cJC8bl7k6J9D2A2K3K9Bb5Ea0B2b1j2cA8cA1NJ3@c6
26351a9F3Ab3m2J2Aa9A0J1Ge2DBa1j8j2la0C2DJ0f@b4B4K8A9L5b2l8c0A8M3j0
26385E1Oidm8a7D7Fc0D4A3J4j3f0K4k1A2OpN0c1MMB3RL4A2b1l1ogC2K2k4Gf2j
26421f3B6qQ%a9cC4b0k4MiBP8A4M9k6e9eKG0k9j3a6m7a9KQD7J7A3f1a5j0a0A0
26457GBN7A0L5c9j2l0a2C1M3ma2k7j2J8E2B1J5b1B5d4Pa6F3B6BQLJ7b3B3d6D4
26491g5E2lEfl5l9B5J8L0k5k1c6Oj2D4lj2Da%Ija5pj6BK7A0h3Ee3BMO1J6a0cp5
26529g8a6HN9qem0Obm8Cb4A5LK4A2Je5IJ3a6C2p%e3jJ1EM3j5a2Gg9L9F5k3Gje0
26568c8aA9jL2j9A5N1k4b4ok1gaH5k4Fbn2b7A6N6k6b0p1hj6C2ML0c2A7d1J0NK
26603b4QKLB6J2Lb1j9A9hA8K9Iaj5fD1K7B9HRjLMOGc8C9b4C6A5K2d9ndqG8B6M
26642C0d5a5@A9M0rk3b7A9CJ1L4a0B3J8A4b5hj6E9A5%K6nc0J1JOC3q@d2Cc1j1
26677d2iB4PHc1a1nA8aA1fk7hm2%K2a0l8A8M2A4a2o0K3iF9A3K2dn7c0m9HO1BL1
26713C3a9qJ2l5K4B8e4b0%IMcB0b7A8O4EJ2a1n9a5LA4b0Daj2KA4J1KOPc6Fb0B3
26751b4jmMH4C2c8j7J0hA0Pa8C3d3m5b3B6rM1hcj6j2J1fA2gC5L2B9a0k4MdbB7
26788B3b3Ia05d7D8@F3k2a9j0dFM8DL@A3a7pm0Ra2F0jk0A7bm8DK2N1k2A7a8q4
26823a02c1B0LK4J0c2k7hl3Ia4A8od8NC6j1a9OD0j1kkf0a8j7a4G6B4b9Pqk0J0
26857d0F0M3C1A1c6rgpG5f2b5dD3Lb5MOCN2CJ4a6m9j0BJ6K6b7C7ANK1K8a0B2J8
26893D0a5B2rb9bo3A7eC8JA0b8l1cA5N5a4MKr0a4A8bI2@Ga7D1d1a5k0J7B1b6B9
26929A8c3QPB0L4k2j2b7j1k9GNRen9b7B7A0N4j0j6a3j0D0e2B5h1c3B5NHAc2l6
26963f8b1A3M3rbm3K1aB1RMEQOrJ6RiA5c9bA0MlJ3j0FL5a2B0Jg0b9jB8KA0e8a2
27003b3B3OgG0k4FkJ6Ef6Oa1A6K2J9B1b5D%KO6B1J0b4l0J6fn2b1B7c2oB6J3c2
27039C6c9a6Fc2Ba7o1C0L6k7J9bk1n1cj0F1B0nb3n2NHa8A3b1@al8a9l1IQFO3A4
27076AL0i9c1E2B2kb7Nm2aEM8Qak5l1A6kM0kob9MB2@B1Ia0MCPDc5jrC5J4k2J0
27115C7b3Nk3a0j7hA6a7A9d2dBK0c4J6A9NqelEc1@E6B4A0f2b2@iA2K6Afk2kJL
27153b6G9a6B3J5na1Bf9B3b0B0K8A0Lg3K7B0b0A9dk8J2k0C7JeA6b3Pj2j1m6ak6
27187b7C2j5b1A1Mg8DJ7M3Jd9jJ8o5C4J3NLd2K0OJPB7FN3c0RFd4K1PA8J7@c0m0
27224g0c4m9CON2B0b2o3b8IcE1b4A3Ab0IAfj1k9J8B7b9B1epj7j3D5A0M8hpj1A0
27261D0A1J6c6J3hCK5dD1a6l3B2bj5k8gj1D4mDMf3FhDJ6b8k8K6Ca0G2A0K3dk9
27297c3a1%bkGK7MJ0B2h5b8j5C4hF7k6c7Da5k7C4aD7Ha2Aa0C7jHb1A0d4J4Rj6
27333c7a5A6LJ9nb6k2a5F7J1B4hA8d5j1B1OKpe5dm9D8FK4nd3PKjk5a9C4a4E7J5
27369G2B6A1c5gB4%ka5j5k1HJCa8D8cC6Jj4jJ6e1b5@a1I2b2A3b3Ba5F3B1aHc6
27406b4B3bA2menJkC4fC5j6oK2j4e8J6el0QC0L2a9A6BJ3J1DK2d2j7j4A4PmFK1
27443B7jA0c3j4J8a3A8nmJ6c0m0a0D2J1P3B4c9ok0a6B4AM9J0co4cD6b3HJ4a6P
27477im8J5j3a6B6J0kj0d4gk8DN4pJ1e9pK2J8D2Nk1Gd1a7B1ik%EBQa9l8Db3dG4
27516D2k0a0%Cb5A8i%k0j3a8B1@B0qLp@E2a3Cf7b1ILN0Hc8dj2GK2K0Db9Dd1K0
27554b1D6b0dCJ3@C2%a1n0a3I4m4c2oalE4FL9A0Ce4J0EN4k4nan4J0A8iE9De2A7
27592a6nB7gk0C9A6L2k2Hf2A7K0A4L3c3j2k0NBK9jJ1A7d0a4l5B0HJ8Kb2gD0A0
27627bA7e4AM1K9A3b6HaCK6NBe1b2IlL0j2J4a5k1D2A1AN0a0ck7aGa4k1fE6J9C4
27665b2j2C0fB6aD7J5gk0j6La6fl6a7GM9A7c8bj0DQJ6b3j9j3b5HM4oA4d0j8K0
27700c8B7a2C5K7ek7J3pP%pA1QK8b5Pi@hE6A3a0Jmo3A4K6j3J0il5D2b1F7a1A4
27737A0a6A0d2fkEM2A1EL7a3JAPN5gINc0NGP4DLAa4Aa1al0IMa0E5j1j6Pc1A9n
27777A4K4Ma3ak6nHJ3L6B2mjBc9C7a7B5b0j8Ma0Cf0DNJ6qDJ4Ki1AJ7Fa1k0j2J0
27815c3a5fB7%qfA0jgl7MGJ5J2Cb1A0a5D1A9N8l0h3a8l9D3c0E3fD8e5j0bE1@e
27852A1c2j2a0l7J7C5IL0b7D1A7c4Fb6Ga5l7J4m3K8J1hD0dA1kCOclD7A9rJ0b4
27888C4A5L4a7IbGa6B7iA7pN@a5k0J3JdrLD3J6j6Hc2A8d1j0b0Ad0dl7J6a1j9H0
27926A8L7el4n2D4a3E2JA8peC2nnb0B9lpe2Pa9dD5J6k7J0j4cl5j2A2a5pJFe9a0
27964b2C5md0HM2gl4a5KEK0Ib3oNLA6K4L1A4c9gm0eB2J7A2d4l0dA2J6qL6B5K8
28000E3B4b7rj7A9L8A5b1IDM5a8FP6C9rf7K3J7j7C8Bb9J1j8gC2L0b1eGc7a3BQ8
28035I0a2k6k1A6J8RIb4B3iJE4AJ7a4j2j4A7K4GK5L2CK7c4C1Ff1b6A5gA4a3qk6
28070d7A1BQ0l5gl4j2a9l5D7hl9BLc2a1B4KiDb1A4f1mC8AN5k2M5Db6Bd3J6AJ2
28106A3Pc6Olk0a2C6a6Nl3F5A6e1iC5Qe5K6j3B0b2@B8J5j3e%j5RA8K3Id8gj7l2
28142e6A5iC7j5a%j1bA2a1k6B3K6a6nMbj6A7d1A9mdJl3B3AL1Idj8IPK3Nc4Qcp
28181a0A0am2C5Ea4D1b9j3B7h1IM1c3EJ7GhmIckCank8Dgj5D6GL3me6lb5maD3G
28222F0@A6HL0K3k3b9C6@d8gnk6a5k4D3j4f8K8m6C0ROqA0b2nj0C8lkA5a3AJ0a2
28259D1j2L0A7e2C0c2o8iD1IkQ1fA4g2C4J8J5GJ9d5J4hB3J3j0a0pj8PAc1gm0A6
28295bk6j7C5c3a4nA4L0A1@d6K1E@c9D0d%nD7A6J2b2D2c4J2B2a1Mm2C4b5%cHA
28332d0C2mRRA3f3l6c1A1N4B3Ra0KDK1b7QIJ9J9a4A4Ba5l3B2j0N2Fa1j7Jgpk1
28368c5De6a7B1QJLK8Aa6j5j1jJ0OD3FRa2D8HL@eD0J0ra4m3a8%CAN6a3C8IJ2E
28408hA1iA8a7fl8rA7qN8pa9FCb2Ea2j6dm7K1A9c4bF0M0A0@hB8a7j2ikj6l6K3
28445d0iC1A0L9j4Nj2b3k9A3e1C8a7A2Ea5Fd9gcB3bj5jDd6K1%E1Kj6J4A9e5k1
28480g6B8J5J1clm1Fe1D7J7k2Ncj5Ok9A2ik3Mgl2%J3C@A8dj7lKk7J9B2A1b0Mk7
28518d3a8C1RCK7J1e2j6Bd5iA7c3A1@b3KB3@a2D7oA8Ca6al4hGL1j2g5a9C9lj5
28554B1J0A3c3J4LB4d0J5c%F7k8j5a6jJC5e3D9f4b9A3Da0B8a1k0F4A4K7f2b7B9
28588c4C9j0cak5k3hD7NrA9b5m0C0c6hD8j2FK7d9hB3a0A6a3E8A4b6ql7DL@a@C6
28626d0IiA9oL0bo0K0fA4aE6B8aj1l4fAK7HfA8b1B8b1j1B6J1J5A2c4ja2j9A6D
28663A1a0j2LJC2A4JPcj7B4J0iB1c8B1%J7A6Mbl7J1Ca4D3a9LqJ0NKBa0mGb3A7
28702gLA4iA8fm2a0FK6j3Djja3B2b4A7hA6Kdj7Ec7j3G2k7j4qc0Fb9l3GM7b0jl
28740b4kk3K2G0c8C1d5J6MC8KL7FN3b2o0K2cB0FeB4iFAe9a3B0a3C2Pc0l7a7n4
28775g1C4N7A8J0a6j4A7a9A9lBc1gck5A8J@A1%b7E0B4Dd2HMnjM@B7cDO9ij7A2
28814A2%e1g%k6j0C8dnA5P1D2j7qqhl2gn0A8DL8a8j4HQKCbA4BM6b5B7c0GJ5b0
28853B2kal6a8DJ8M6C3a1j1j6J6LC1J6A4QA1c2OjCPc0MD3d4j1b0B2ICK0hk4Ad4
28891C0NA7Of2C2j2KLN5A5Da4Nj7J1aGAJ0CK8b4D1J7A4L6b2j8Pn6HKJ8L6a9k4
28927d3IjJ6HJ7L@c6j1a0ll3fB6K8j7@C6d5dj6GL7b1dl8JJ1B0jJ3PRgl3a3kgL
28966dIL5d0fj5B4d0F8k0DAa9Qk1a6D1j4hk6hAJ6lMJ9gEe7b2Lm5a0FJ3b5rl1e
29005f5C1L0fA5d2PBL9kpa9C0J7j4a9j0A5eJj1A8Je0J7a0FJ6md5K2k7b2QA2J0
29040B2b0Nfk3C4L1B1L7b5A4dj6%C2eD%b3eEa3dHb2hA9d0PFJ0c0MIe0A0e3H1G
29079bA2M2aCL2Ba7gqlE2c0en2Ca0jKA5Chk8J6FK6L8k4b1Bb4Gje1a1qB0PK8Fb4
29120b0fC8j1ak0B0hC2md9dk2Ql4a6FBK4@b7iB6c1j5B8iC2b2JIb8A2fD3B1J0d
29158g7a8D8JQL4cak2el4B7ej6A5c3A5d1a9GL1a0C8b4j3A2J5AL9@a3A6K3Eb2A1
29194FAP7A0ck1B3a4Ddm7a1j4a1Ea9m1B3a6Ba0k0a0A5LEJ4a1C2c1Mm2a9@c5F9
29230c3J3B2a3j5a1D8d%k1k5ARL8AL7a7A3c0a5%Gd3A9ij2MJaHa1dE6ej0jC5e5
29268ELBL9c9OFJ9oL8k4Pe0l9A0b7gC0Ba9Db6QEJ8IK6j1e9a2am2Hc9A1a3C1Ie2
29307b5B6ek5C0c7ck3k2C2kDK1ReB4cB0c6B2K%qa6j3B4K1nqA4AbDe7A7la3E4a7
29346d4j4a6B9CL0j0FJ9jb3k1J4gj8B8eJGJ9b6E6hA8c5l9J6J4a3MB9b6F7M6a2
29381A1J3c3D0j2NEeKaE3PB5mHe7B5NK9j5b6l1a0LA6HM7A8%K2nal8Ca5C7EeFf0
29421eB9J4IAK4Pa8Qkk7C3@B6od9DN1A8a6rA8a6j1j4Dc5a2D4a8A1K4a3qmHL0k
29458C6a0ngl9J0A4J8j0b2A1nJ9b0A6hj1D3A5b0k3B4K2a6A1P8k5A8nc3jA5b0G
29492A9c1BaIiD3ODJ5f7a2mj8D3K0B8a5qB4cB1eE0a3B8d6m6b5J0E5KB8J5j1c1
29528B2lb7bFd9Gb4k7a6j5E5j2Lj8lGQc4C0b3l0ALjNkL6kBbk2fJA8hB9a0l6Cc5
29569DdC9j3bB2c5jgA5Bd6m2L8A2d3B7a8ak0C5A6Df3b8l4dHL6A9d0Da1j5B3J3
29604C6j1b0bj4j3a2rpC5RK3A3a1Mrj3J1B8j0a1AMi@D3c3B6kd7A5b7j7cGb0aj1
29641a2C1c4F9a5D4a2A4Nf6K8l4I1B8j1ja3m8hk8A1nL0A1a@cC1BN0hbj2fj2B3
29677a0B9d1bB1c5A0f4B3LOa8A2b5k1Ab8C0A0QNiKaoC4Ae1C0b4LgB4KaA0hjj8
29715b7a3j7a1j9a1Nnj0EJ1ncHa0Da9C4a3Ia%D0b8bl2A6hj9Ab7B2d1QJ4KIKJ2
29753B3A0K4J0A0a5aB3gA1K2j5c1qHK9oJ3a3oj9C4e3QC9a0B4RdA5QKMA3K2qb1
29790bn3FK7L0L9AJ6JiEhB1al0j3lA5dC9@B9qd1J4a3B4Fd4J8fA6c1Aa8dA2J8K6
29828E6a3j4B6lqb6E5elj1k9fKC5a2NA5gDf1K9kdlA1gn5@B6J0J0j6J7B2b5Fa0
29866A2a7C2b2kj6dB5b3E7e5C7c9klJ8a3m8a0CK7CJ5lb2@A0L4AOc3l1ja4A5GK2
29902B9mJ6A5b3ocF2Ce7Mj9J8BK1J8oj5Qa4l8a3j7B0Od5K1j9ERL7j9J0j0b3A0
29938e8a5qB3b4B2fo3L0fC0K7oell0LJ6C9%A5oK0AfC4J0RQDL1d4k6K6A4J0K8G
29976B6j0c2KC5j7@b0A2e2K3kB6A1Cej1A9K1qeBd3D0Cd4j6b5JeD4M5C7j8a5A8
30012a1j3B6b0Bd9dk6A4M8CNLlb1kA8L6d4D9Ibl4J7HCKe5A3K8@e1b1Db7j9FRR
30050B4A0aEJ8d0dB9c1a2m6baB6L0a2em0CJ5c5gB2K8a1j4B8d7A7GJ3a3B8a9bj9
30085b1m0b6j3A%a0Ihk5gD6j0q@b4GRc2JA3b0fB6c3C8fEL9anA3a4Ca5jPE0gB6
30125hm0J4JA4gA3@Bc3hn5b4B2qL1Fh0F%eC7A4fD7irC4J3M6A3Na6@c6A9J8j3r
30163A5jf7a3l0J5C0j3NJ6Gla4aC4a2mB7K0a0mMCM9j3kfFd1GRc7B6c6A2d4j6B0
30201B9J4j1b6pB5e5QA5@cC7%dJA1fjk3C7a5fF@c0BOb1FLd2CiHa4D4bj9dm1B0
30242c7E5A7L8K5c8Ga4DN6j9j2IRa6j4Da2qC9A7L5k0a7cA8MR@B9b0k0A3a2ChA7
30279amHNJ3eB4baB2d1k0K7@DM8A8a7A6md2A0J1lb8B7bo0a7A5Rq@b3j7QPcl5a
30319iA1c6J5fJB5P9A6a5l4gk2j4C4A5K1DJ7e6B4K8k1J2a1rrgD1A8LC@Ia3aB3
30356F6A4a4bk8k5D4e0a6IBcC7a3eJDb1A7Da4B1AJ8fA6J0NpK3Bb1A9qb2J0j9g
30394b0OB6b4m3a7A3c2E4b3Ia1j9jj7bC1a5lA6c5RA9c7F6B2b3m9L1dlC9rma4n6
30429g0EgpC1K5a7k0j4oK3A3L5a0B8c6j2j0K4D5a0j6Lk1LA1cB4N3ml3a4A6b9P
30463b2IJ4Bgk1nRdA3Mka0A3fA6jJ5Lb0dEJ9hE7Pk7HCOOQhAL7A8lgkA0N6Fik2
30506c1cl1J6LnNakC6AN5fA1c0nmKA7eBc1C4Hb2E6j7j6ibA8Ie0B3d9B3Md2R@b7
30547cB7GKgA2h6L1B4b1E8bk8l7PAbE1B1j0b4l3a4n7eF8c3B1De1a2B3K3K4A1K3
30582C4Ab6j4a4O@B2ra5N%C5rqd3J7@iA6c6B9a9E5cC5A4bj3OC1d0C8b0G@b6IC
30621C1oqc1JB7e4J6IJ7b6lp@A0a3EKK7gk2pA4c7gBa7Hb4IbA1KJ0pcl4J1hm3A
30662c4B6d7K1gqDb6AM8gC7fC4a8j8Ed6C0Gjc3jRB1a2C9a3Kl5a0pA4Cg1C6b4i
30700c9C5j2f7GL0Ca4B2a1k6Ca0qAg0b7B4iA3J7KRA0Nb3C2a9D3oAb4C1J5GML5
30736D6L4B1pi@a5MA0mL4Gc4fC9Ifj8l5E5c2a4A7J1KJ9rJ6c8a8dj0B1d3BJ9Da5
30774Ca4B7J5Hd0Oa5mA6Cb4C1Df3GJ0K7c4iD0%Oa4fJIa5B4Da8dl2fB0HK4@em2
30813d7cB6gC9j7Fb5Mj1Da6OD9a7p%k2J9C4FAN1B1Kd7IfnD4b9A6b6A7b3DaB4q
30851A6K0a5j8A6ak2D3B1BJ0cpIjK1npdk2B2f4Cb4A3J0c1Ga7D7E@D8DJ3J2a7k6
30888d3J9iboA1KCb1%j4A4b8cGhj4k7GJ0K5j2fj7nA1a1k4AN6e4KLJ8a0C5J6j9
30925C2ej7fj1j3Af4a7A8c8@A8J1mN8l5B3enqC0J1@a2D1Qc6A5e0IJ8K6a1Cin4
30961f3b1RGkK5b0k0B1b5jC7h@d6Oa4n3hB9J5hA5b1g%cA3@@b6HAa7jD4c4A8aB3
31001Cb6KCfj6A1%K3J0dm1na0kA7a2fC3c1fA3M1hA2BQc7LCQa7Dd5el6a7A2NL0
31040D7j4j5QMa5C1Fa4B4Ba4j2Nj6dD3Lj1A4Oc2gj5A8L3aBc8A4dD6pb4GJ5a4k8
31077d2oa7dE1A0a0l4A2a6A9Ha0C2a9k9QBK1K0Rdm4J6J1MCa1j5%LJma2AL8j0A0
31115c@am6gB0md2@ck5fcj4bIf1C0a3n3J7A6@B1qhbE7A3K0c8MC7Hf7C8A4d9er8
31154a03b5Lj2m%B1jNKJ9bm6a2Hd7Cb2a0B4%c2j7b2l4@C5fHeB4BJ1K6KA3fm1J1
31192c6NA0fB4rBb0m2K3GK5b5C9a8C6d7J4B5fFJ4c0l6oc4bA1K7c6Gd0J4A2Me1
31228F3Ba7j8il6C1GJ1CJ4b4%A8a4B5c9F4B2c3in3B4a6dD8aA9gB1HK3j3K5pb2
31264@a2l4C1J8j9j1Na9@c7a3pG1IhjB0bj0IOa1A0il6Ram0eB9DL4b8B0DJ6@C3
31303C1Bg5L0a4FJ4ja9Fc4Fa9C9A8J6b9J4m6Pa2A2EJ7d3A1K8a5k1a5A6dB7ej0
31337a5l0a7B5a5A9L0j6Efk9J5F6l1J1A1bm3a5D5hk0CP1A5a4AK8b9EO1c0J1Ab4
31372D0bB8j0ijC2bm3A4gm3C1K0A8a9lRB3Db0lC5f5b2mj7@dD9B3b8A6%c2J1A2
31409B2a6lk6a5EPa3A3kJ6b5cHM0a8pgm3A8f4a5BK3K4jA1@C5A2epA2mOa2k8fm2
31447d8Hbkk0k4J3oJ4FRJ9bIJ9a6C2c5A5N6eC5b9nk1K0B8iA2a7qCN9J1B5aDbj0
31485a2j9OgD2c3pC1EJ7iE3a0l7D1a8KrRE0A8oL1a3C3Ce5b1j2A3M7a4j7BRL5a4
31522B3K5J8C1Oa0A1a3l6K2A0J1a0l9A5a2F3opdBg3a6MEiD2pj5J9A0N5BJ6JoD
31559d1mmB2Oa8B0d3C3c5aj5Ia4j6%j1Fe1a7IK3J3c7D6b5il6@dDJaCeC1a3B6%
31597B6Ge3A1gjA5b1nA5M3A5a2k6D7a5H0A2Bb9l5K1eA2L0L1A7J5mlfA7@A8K5A5
31633b0j3k0HeB0Jrcj0@a3A8K3a3pA6b1j4Ac0cC1hk3k5dl5J9aj9C2A5c3C1iGl
31670DJ0iB8a8j7a2BJ6M6dj2A0a5A3a4%Kj1cj0pj0j0JJ7C1b7C0c5a7mB8rLK2j9
31706B5b8B5gB2J5Ge1b5j4C2HeB7J1c0J2mC1a2odGa8k2C1A0Jb5A2J7OAdl8j9I
31743GN0Fb7DJ7FJ9K2Cb6C2d7K0A4FRKHK5c4nDb5aA3Ec2DfB3e8C1j1CgA9c1a1
31782e2b3MpLA7QaB9d6A0lK4A2Bg2L4A2em4dC0J0c0JA2ne0IM3a%k3A7@a0BN8k3
31820C7Qb4%PC5b3C1A1c8a4l8bB2c0EQb8Qgj9B9A3M7k8A3e7J8a6ondqmDc1j3k
31857d6C7J9hqek8KB4kLFCOKb4anj0Ba8hpA0b0JB8d5b2C0j0a8in0J1C6ANgGMk
31898IDK2J3b6hl2A2b0nA7b3Gc6A3J9GJ3BK7j4ham3a6l4gkk2D6a2fJp8A3hGO4
31935G1A1b0eA8b9C1qLK1GjK8c4A5a3A7e6A4a2dnG7j0B6a1Hd0l5A7a9C6a3Ojj5
31970b3QB9lJ6CM7bj7j9A6Gb2D0j5Oc5B7b0hl2eA0b4qL@C8mJ2GRJ1a7B3kRj1a3
32009c2J4l5H%J4rL5Dc1lE0K0@A2Qd9BKM6b3HM6b0B5A2all6C2A0a6LMAN7k8b0
32047A6EJ7a3B1a2B3d4@a4D7B1CJ8BJ8AJ4K3jc0C9fA4c8B8j3J8@c9k0a1rA6a7
32082B0a0l6qfDc0E8K8B5kFb8B4enA0Ein6qhE4b6aA9Bbo9cj0nj1fcl2a0j4HJ0
32121A8bA1b2dl4JhF5Hcl9b0E8A0M9HKb2j8a3l9C4A6LRbl6A0f6B9b6C@c3hnnj3
32159c1J0EJ0EM5FJ8Fc9D3a6KGMJ4b5C3K4B4dj0l3pbGgcB5Ia5B3gj0B9GL8iB7
32198C0EK4a1j5C9L7B0c0dj3lj1A6N7fA0d9j9AiA1%a7G8AL4c9MD5Jb2Ll1b1A2
32234a5B4a3D0e8bkA2b6B@a0A1a7Jll1J4aD5b6C4a2k6J4PE2A8K9j9Ac2@b9al4
32269c5B7d7b1P@a6B5pL5dn1j5A6c9E8la4D1f0b8hkoE3j1b0RHc3a3eC6pe8J5G4
32306F3c7A7J0bA7c8A9c2DjK1c6A2gB1d3Ib3C6hAK5kf0b1D6b3@A3L2CAhcD5b5
32343A2L4FjL0HJ4P7a1A0K0cn6Fd9A6J2b1E3d8A8oL4N@CJ6b0j5k2a5j6A1K0BJ4
32378A6J1Bf1a1HBM5J3c4k4a6McA2BNb0k4b0A3f1C8a1Aa0j5a0C9A7L1j8jf2Id6
32414e3A5a8A9Da0EeAJ5K9HkNQd3dB8a7E0B4A2a7j9a2Ia3B3Lbk1Oejj6B5a7gA6
32453d9j0D1g@Ce1a2B7fA2Fa2A4kEJ5aj4Jn0A3iA4Bb4l4HJ5MJ1AL3d0a0mrk2C6
32492d0Fb9a1oB9IL2Fc8J5Ia8gBdA7lhj2Da8A4L8k4a@c0a5H@C6A6jmb5Fa3I%C
32533FCf3a0j3OBc5F9b6Be0A1a2A4lnLMc4CJ2c4cC3gB0a1%nJEb9Da4m0J8J2oB1
32573A6J4Dij7j5a2k7J7a1cEa1j0eC8K9Fa9kLl0J6C8A2L8a6B5b4j0a3@D4j8@a6
32609a1Ga0A6P%L7fk8J5B2bA8d5a5npm8J9A1L5K3l3He7ogB3c1A4b2A6d3Ca2B0
32645GcA0J1e2J9DARO3a9Pk1A0K1DJ0a2rC2b5dak9J1j5jA3M1fkk0Pj3B6a0B2c1
32683a7lB2mf6C0hEJ0b4REL5idC5j4qa3B4c7HN7B2Ad3la0DK8pe4J6AJ3MbB5Ia4
32723D7e2De2B9j3JL1fj5a0aj4C8A9el4jJ4aIjKJ5a5KqC3b2G8FLJ4a9B5%J1%j2
32761B4%A0c0B1b5d
##END NTUPLES=NMR FID
##END=
